# created with PyMOL 2.5.0
@<TRIPOS>MOLECULE
=
31 31 1                 
SMALL
USER_CHARGES
@<TRIPOS>ATOM
1	   N	33.482	23.089	71.139	N.pl3	1	UNL1	-0.303	
2	   N	34.135	20.217	72.029	N.pl3	1	UNL1	-0.279	
3	   C	32.088	21.073	70.992	C.2	1	UNL1	0.067	
4	   C	30.967	20.874	70.164	C.2	1	UNL1	0.006	
5	   C	30.703	19.619	69.618	C.2	1	UNL1	0.000	
6	   C	31.561	18.558	69.884	C.2	1	UNL1	0.001	
7	   C	32.691	18.749	70.683	C.2	1	UNL1	0.015	
8	   C	32.981	20.002	71.238	C.2	1	UNL1	0.055	
9	   C	32.345	22.431	71.567	C.2	1	UNL1	0.247	
10	   C	35.020	24.961	70.842	C.3	1	UNL1	0.021	
11	   C	33.798	24.438	71.591	C.3	1	UNL1	0.072	
12	   C	32.602	25.366	71.394	C.3	1	UNL1	0.021	
13	   C	35.302	20.856	71.681	C.2	1	UNL1	0.264	
14	   C	36.338	20.920	72.821	C.2	1	UNL1	0.128	
15	   O	31.546	22.922	72.359	O.2	1	UNL1	-0.270	
16	   O	35.628	21.379	70.621	O.2	1	UNL1	-0.269	
17	   O	37.513	21.172	72.646	O.co2	1	UNL1	-0.540	
18	   O	35.749	20.671	74.008	O.co2	1	UNL1	-0.540	
19	 H01	29.828	19.470	68.985	 H	1	UNL1	0.000	
20	 H02	30.300	21.708	69.948	 H	1	UNL1	0.000	
21	 H03	31.351	17.573	69.467	 H	1	UNL1	0.000	
22	 H04	33.358	17.909	70.878	 H	1	UNL1	0.000	
23	 H05	31.772	25.024	72.012	 H	1	UNL1	0.000	
24	 H06	32.877	26.380	71.684	 H	1	UNL1	0.000	
25	 H07	32.302	25.356	70.346	 H	1	UNL1	0.000	
26	 H08	34.026	24.409	72.656	 H	1	UNL1	0.000	
27	 H09	35.869	24.304	71.029	 H	1	UNL1	0.000	
28	 H10	34.809	24.985	69.773	 H	1	UNL1	0.000	
29	 H11	35.256	25.967	71.189	 H	1	UNL1	0.000	
30	   H	34.093	22.636	70.514	 H	1	UNL1	0.150	
31	   H	34.097	19.863	72.947	 H	1	UNL1	0.155	
@<TRIPOS>BOND
1 1 9 1
2 1 11 1
3 1 30 1
4 2 31 1
5 3 8 ar
6 3 9 1
7 3 4 ar
8 4 20 1
9 4 5 ar
10 5 6 ar
11 5 19 1
12 6 7 ar
13 6 21 1
14 7 8 ar
15 7 22 1
16 2 8 1
17 9 15 2
18 10 11 1
19 10 27 1
20 10 28 1
21 10 29 1
22 11 26 1
23 11 12 1
24 12 23 1
25 12 24 1
26 12 25 1
27 2 13 1
28 13 14 1
29 14 18 ar
30 13 16 2
31 14 17 ar
@<TRIPOS>SUBSTRUCTURE
1	UNL1	1	GROUP	1 ****	UNL
