# created with PyMOL 2.5.0
@<TRIPOS>MOLECULE
=
35 36 1                 
SMALL
USER_CHARGES
@<TRIPOS>ATOM
1	   N	34.771	20.423	71.471	N.pl3	1	UNL1	-0.268	
2	   C	34.374	19.360	70.675	C.2	1	UNL1	0.253	
3	   C	32.934	18.825	70.806	C.3	1	UNL1	0.191	
4	   C	32.526	17.909	69.658	C.3	1	UNL1	0.042	
5	   C	31.043	18.159	69.556	C.3	1	UNL1	0.035	
6	   C	30.966	19.638	69.847	C.3	1	UNL1	0.143	
7	   C	36.180	20.843	71.453	C.3	1	UNL1	0.135	
8	   C	36.828	20.892	72.833	C.2	1	UNL1	0.071	
9	   C	33.868	21.201	72.319	C.3	1	UNL1	0.121	
10	   C	33.757	22.668	71.954	C.2	1	UNL1	-0.002	
11	   C	34.717	23.629	72.304	C.2	1	UNL1	-0.003	
12	   C	34.547	24.970	71.948	C.2	1	UNL1	-0.000	
13	   C	33.416	25.370	71.242	C.2	1	UNL1	-0.000	
14	   C	32.450	24.430	70.892	C.2	1	UNL1	-0.000	
15	   C	32.619	23.090	71.247	C.2	1	UNL1	-0.003	
16	   O	35.177	18.898	69.857	O.2	1	UNL1	-0.272	
17	   O	31.986	19.907	70.817	O.3	1	UNL1	-0.347	
18	   O	38.031	21.035	73.009	O.co2	1	UNL1	-0.547	
19	   O	35.949	20.879	73.864	O.co2	1	UNL1	-0.547	
20	 H01	31.857	22.361	70.971	 H	1	UNL1	0.000	
21	 H02	33.287	26.416	70.964	 H	1	UNL1	0.000	
22	 H03	35.605	23.327	72.859	 H	1	UNL1	0.000	
23	 H04	35.303	25.705	72.224	 H	1	UNL1	0.000	
24	 H05	31.562	24.740	70.341	 H	1	UNL1	0.000	
25	 H06	34.287	21.167	73.325	 H	1	UNL1	0.000	
26	 H07	32.874	20.758	72.252	 H	1	UNL1	0.000	
27	 H08	32.926	18.264	71.741	 H	1	UNL1	0.000	
28	 H09	32.781	16.862	69.825	 H	1	UNL1	0.000	
29	 H10	33.037	18.181	68.735	 H	1	UNL1	0.000	
30	 H11	30.442	17.543	70.225	 H	1	UNL1	0.000	
31	 H12	30.667	17.929	68.559	 H	1	UNL1	0.000	
32	 H13	29.980	19.919	70.218	 H	1	UNL1	0.000	
33	 H14	31.146	20.213	68.939	 H	1	UNL1	0.000	
34	 H15	36.202	21.858	71.057	 H	1	UNL1	0.000	
35	 H16	36.740	20.141	70.835	 H	1	UNL1	0.000	
@<TRIPOS>BOND
1 1 9 1
2 1 2 1
3 2 3 1
4 3 17 1
5 3 27 1
6 3 4 1
7 4 28 1
8 4 29 1
9 4 5 1
10 5 6 1
11 5 30 1
12 5 31 1
13 6 17 1
14 6 32 1
15 6 33 1
16 1 7 1
17 7 8 1
18 7 34 1
19 7 35 1
20 8 18 ar
21 8 19 ar
22 9 25 1
23 9 26 1
24 9 10 1
25 10 11 ar
26 11 22 1
27 11 12 ar
28 12 23 1
29 12 13 ar
30 13 21 1
31 13 14 ar
32 14 15 ar
33 14 24 1
34 10 15 ar
35 15 20 1
36 2 16 2
@<TRIPOS>SUBSTRUCTURE
1	UNL1	1	GROUP	1 ****	UNL
