REMARK  Name = ZINC000284711742
REMARK  6 active torsions:
REMARK  status: ('A' for Active; 'I' for Inactive)
REMARK    1  A    between atoms: C2_2  and  C16_16
REMARK    2  A    between atoms: N3_3  and  C4_4
REMARK    3  A    between atoms: C4_4  and  C5_5
REMARK    4  A    between atoms: C5_5  and  N6_6
REMARK    5  A    between atoms: N18_18  and  C19_19
REMARK    6  A    between atoms: C19_19  and  C20_20
REMARK                            x       y       z     vdW  Elec       q    Type
REMARK                         _______ _______ _______ _____ _____    ______ ____
ROOT
ATOM      1  O1  ZIN A   1       0.002  -0.004   0.002  0.00  0.00    -0.510 OA
ATOM      2  C2  ZIN A   1      -0.014   1.209   0.009  0.00  0.00    +0.510 C 
ATOM      3  N3  ZIN A   1       1.143   1.899   0.001  0.00  0.00    -0.700 N 
ATOM      4  H27 ZIN A   1       1.130   2.869   0.007  0.00  0.00    +0.420 HD
ENDROOT
BRANCH   2   5
ATOM      5  C16 ZIN A   1      -1.319   1.939   0.019  0.00  0.00    +0.510 C 
ATOM      6  O17 ZIN A   1      -1.335   3.152   0.025  0.00  0.00    -0.520 OA
ATOM      7  N18 ZIN A   1      -2.477   1.249   0.021  0.00  0.00    -0.700 N 
ATOM      8  H42 ZIN A   1      -2.463   0.279   0.015  0.00  0.00    +0.420 HD
BRANCH   7   9
ATOM      9  C19 ZIN A   1      -3.755   1.964   0.030  0.00  0.00    +0.320 C 
BRANCH   9  10
ATOM     10  C20 ZIN A   1      -4.904   0.954   0.030  0.00  0.00    +0.030 C 
ATOM     11  C22 ZIN A   1      -6.235   1.702   0.046  0.00  0.00    +0.130 C 
ATOM     12  S23 ZIN A   1      -7.601   0.530   0.254  0.00  0.00    -0.240 S 
ATOM     13  C24 ZIN A   1      -7.490  -0.507  -1.227  0.00  0.00    +0.130 C 
ATOM     14  C25 ZIN A   1      -6.160  -1.254  -1.243  0.00  0.00    +0.130 C 
ATOM     15  S26 ZIN A   1      -4.795  -0.081  -1.453  0.00  0.00    -0.230 S 
ENDBRANCH   9  10
ENDBRANCH   7   9
ENDBRANCH   2   5
BRANCH   3  16
ATOM     16  C4  ZIN A   1       2.422   1.184  -0.015  0.00  0.00    +0.240 C 
BRANCH  16  17
ATOM     17  C5  ZIN A   1       3.571   2.194  -0.020  0.00  0.00    +0.220 C 
BRANCH  17  18
ATOM     18  N6  ZIN A   1       4.853   1.477  -0.036  0.00  0.00    -0.520 NA
ATOM     19  C7  ZIN A   1       4.937   0.572  -1.194  0.00  0.00    +0.170 C 
ATOM     20  C8  ZIN A   1       6.393   0.141  -1.369  0.00  0.00    +0.090 C 
ATOM     21  C9  ZIN A   1       6.943  -0.359  -0.058  0.00  0.00    -0.070 A 
ATOM     22  C10 ZIN A   1       8.104  -1.117  -0.073  0.00  0.00    +0.000 A 
ATOM     23  C11 ZIN A   1       8.643  -1.592   1.106  0.00  0.00    +0.000 A 
ATOM     24  C12 ZIN A   1       8.022  -1.309   2.308  0.00  0.00    +0.000 A 
ATOM     25  C13 ZIN A   1       6.866  -0.555   2.325  0.00  0.00    +0.000 A 
ATOM     26  C14 ZIN A   1       6.322  -0.080   1.141  0.00  0.00    -0.080 A 
ATOM     27  C15 ZIN A   1       5.053   0.728   1.209  0.00  0.00    +0.230 C 
ENDBRANCH  17  18
ENDBRANCH  16  17
ENDBRANCH   3  16
TORSDOF 6
