@<TRIPOS>MOLECULE
UNL
   35    36     1     0     0
SMALL
bcc


@<TRIPOS>ATOM
      1 N           34.7710    20.4230    71.4710 n          1 UNL      -0.413800
      2 C           34.3740    19.3600    70.6750 c          1 UNL       0.640100
      3 C1          32.9340    18.8250    70.8060 c3         1 UNL       0.073100
      4 C2          32.5260    17.9090    69.6580 c3         1 UNL      -0.101400
      5 C3          31.0430    18.1590    69.5560 c3         1 UNL      -0.103400
      6 C4          30.9660    19.6380    69.8470 c3         1 UNL       0.127400
      7 C5          36.1800    20.8430    71.4530 c3         1 UNL      -0.050000
      8 C6          36.8280    20.8920    72.8330 c          1 UNL       0.906600
      9 C7          33.8680    21.2010    72.3190 c3         1 UNL       0.124300
     10 C8          33.7570    22.6680    71.9540 ca         1 UNL      -0.095300
     11 C9          34.7170    23.6290    72.3040 ca         1 UNL      -0.113500
     12 C10         34.5470    24.9700    71.9480 ca         1 UNL      -0.155000
     13 C11         33.4160    25.3700    71.2420 ca         1 UNL      -0.144000
     14 C12         32.4500    24.4300    70.8920 ca         1 UNL      -0.155000
     15 C13         32.6190    23.0900    71.2470 ca         1 UNL      -0.113500
     16 O           35.1770    18.8980    69.8570 o          1 UNL      -0.647100
     17 O1          31.9860    19.9070    70.8170 os         1 UNL      -0.420600
     18 O2          38.0310    21.0350    73.0090 o          1 UNL      -0.835300
     19 O3          35.9490    20.8790    73.8640 o          1 UNL      -0.835300
     20 H01         31.8570    22.3610    70.9710 ha         1 UNL       0.172500
     21 H02         33.2870    26.4160    70.9640 ha         1 UNL       0.108000
     22 H03         35.6050    23.3270    72.8590 ha         1 UNL       0.172500
     23 H04         35.3030    25.7050    72.2240 ha         1 UNL       0.114500
     24 H05         31.5620    24.7400    70.3410 ha         1 UNL       0.114500
     25 H06         34.2870    21.1670    73.3250 h1         1 UNL       0.077700
     26 H07         32.8740    20.7580    72.2520 h1         1 UNL       0.077700
     27 H08         32.9260    18.2640    71.7410 h1         1 UNL       0.073700
     28 H09         32.7810    16.8620    69.8250 hc         1 UNL       0.068700
     29 H10         33.0370    18.1810    68.7350 hc         1 UNL       0.068700
     30 H11         30.4420    17.5430    70.2250 hc         1 UNL       0.043700
     31 H12         30.6670    17.9290    68.5590 hc         1 UNL       0.043700
     32 H13         29.9800    19.9190    70.2180 h1         1 UNL       0.040700
     33 H14         31.1460    20.2130    68.9390 h1         1 UNL       0.040700
     34 H15         36.2020    21.8580    71.0570 h1         1 UNL       0.048200
     35 H16         36.7400    20.1410    70.8350 h1         1 UNL       0.048200
@<TRIPOS>BOND
     1     1     9 1   
     2     1     2 1   
     3     2     3 1   
     4     3    17 1   
     5     3    27 1   
     6     3     4 1   
     7     4    28 1   
     8     4    29 1   
     9     4     5 1   
    10     5     6 1   
    11     5    30 1   
    12     5    31 1   
    13     6    17 1   
    14     6    32 1   
    15     6    33 1   
    16     1     7 1   
    17     7     8 1   
    18     7    34 1   
    19     7    35 1   
    20     8    18 1   
    21     8    19 1   
    22     9    25 1   
    23     9    26 1   
    24     9    10 1   
    25    10    11 ar  
    26    11    22 1   
    27    11    12 ar  
    28    12    23 1   
    29    12    13 ar  
    30    13    21 1   
    31    13    14 ar  
    32    14    15 ar  
    33    14    24 1   
    34    10    15 ar  
    35    15    20 1   
    36     2    16 2   
@<TRIPOS>SUBSTRUCTURE
     1 UNL         1 TEMP              0 ****  ****    0 ROOT
