MODEL 1
REMARK VINA RESULT:      -4.6      0.000      0.000
REMARK  Name = *****
REMARK                            x       y       z     vdW  Elec       q    Type
REMARK                         _______ _______ _______ _____ _____    ______ ____
ROOT
ATOM      1  CA  MET A  1       26.780  24.611  65.882  0.00  0.00    +0.119 C 
ENDROOT
BRANCH   1   2
ATOM      2  N   MET A  1       28.176  24.772  65.452  0.00  0.00    -0.306 N 
ATOM      3  H   MET A  1       28.836  25.149  66.076  0.00  0.00    +0.149 HD
ATOM      4  C   UNK A  0       28.573  24.399  64.186  0.00  0.00    +0.228 C 
ATOM      5  O   UNK A  0       27.769  23.930  63.379  0.00  0.00    -0.275 OA
BRANCH   4   6
ATOM      6  C   UNK A  0       30.037  24.619  63.875  0.00  0.00    +0.204 C 
ATOM      7 CL   UNK A  0       30.241  26.240  63.186  0.00  0.00    -0.116 Cl
ENDBRANCH   4   6
ENDBRANCH   1   2
BRANCH   1   8
ATOM      8  C   MET A  1       26.239  25.975  66.349  0.00  0.00    +0.062 C 
ATOM      9  OXT MET A  1       26.085  26.866  65.339  0.00  0.00    -0.548 OA
ATOM     10  O   MET A  1       25.990  26.263  67.512  0.00  0.00    -0.548 OA
ENDBRANCH   1   8
BRANCH   1  11
ATOM     11  CB  MET A  1       26.697  23.548  66.988  0.00  0.00    +0.039 C 
BRANCH  11  12
ATOM     12  CG  MET A  1       27.997  23.303  67.758  0.00  0.00    +0.071 C 
BRANCH  12  14
ATOM     13  CE  MET A  1       28.595  21.192  66.097  0.00  0.00    +0.084 C 
ATOM     14  SD  MET A  1       28.409  21.532  67.865  0.00  0.00    -0.164 S 
ENDBRANCH  12  14
ENDBRANCH  11  12
ENDBRANCH   1  11
TORSDOF 6
ENDMDL
MODEL 2
REMARK VINA RESULT:      -4.5      2.986      3.899
REMARK  Name = *****
REMARK                            x       y       z     vdW  Elec       q    Type
REMARK                         _______ _______ _______ _____ _____    ______ ____
ROOT
ATOM      1  CA  MET A  1       27.070  24.554  65.866  0.00  0.00    +0.119 C 
ENDROOT
BRANCH   1   2
ATOM      2  N   MET A  1       26.354  23.381  66.386  0.00  0.00    -0.306 N 
ATOM      3  H   MET A  1       25.509  23.103  65.967  0.00  0.00    +0.149 HD
ATOM      4  C   UNK A  0       26.852  22.665  67.453  0.00  0.00    +0.228 C 
ATOM      5  O   UNK A  0       27.904  22.991  68.004  0.00  0.00    -0.275 OA
BRANCH   4   6
ATOM      6  C   UNK A  0       26.014  21.481  67.886  0.00  0.00    +0.204 C 
ATOM      7 CL   UNK A  0       26.755  19.994  67.268  0.00  0.00    -0.116 Cl
ENDBRANCH   4   6
ENDBRANCH   1   2
BRANCH   1   8
ATOM      8  C   MET A  1       26.418  25.830  66.428  0.00  0.00    +0.062 C 
ATOM      9  OXT MET A  1       25.991  26.684  65.466  0.00  0.00    -0.548 OA
ATOM     10  O   MET A  1       26.306  26.087  67.620  0.00  0.00    -0.548 OA
ENDBRANCH   1   8
BRANCH   1  11
ATOM     11  CB  MET A  1       27.060  24.530  64.330  0.00  0.00    +0.039 C 
BRANCH  11  12
ATOM     12  CG  MET A  1       28.197  23.735  63.682  0.00  0.00    +0.071 C 
BRANCH  12  14
ATOM     13  CE  MET A  1       29.536  21.756  65.049  0.00  0.00    +0.084 C 
ATOM     14  SD  MET A  1       29.625  23.547  64.795  0.00  0.00    -0.164 S 
ENDBRANCH  12  14
ENDBRANCH  11  12
ENDBRANCH   1  11
TORSDOF 6
ENDMDL
MODEL 3
REMARK VINA RESULT:      -4.3     14.927     16.051
REMARK  Name = *****
REMARK                            x       y       z     vdW  Elec       q    Type
REMARK                         _______ _______ _______ _____ _____    ______ ____
ROOT
ATOM      1  CA  MET A  1       19.964  35.281  59.121  0.00  0.00    +0.119 C 
ENDROOT
BRANCH   1   2
ATOM      2  N   MET A  1       19.127  36.149  58.283  0.00  0.00    -0.306 N 
ATOM      3  H   MET A  1       19.468  37.027  58.000  0.00  0.00    +0.149 HD
ATOM      4  C   UNK A  0       17.869  35.748  57.885  0.00  0.00    +0.228 C 
ATOM      5  O   UNK A  0       17.411  34.658  58.227  0.00  0.00    -0.275 OA
BRANCH   4   6
ATOM      6  C   UNK A  0       17.115  36.739  57.025  0.00  0.00    +0.204 C 
ATOM      7 CL   UNK A  0       17.674  38.377  57.410  0.00  0.00    -0.116 Cl
ENDBRANCH   4   6
ENDBRANCH   1   2
BRANCH   1   8
ATOM      8  C   MET A  1       20.544  36.111  60.280  0.00  0.00    +0.062 C 
ATOM      9  OXT MET A  1       20.970  37.340  59.900  0.00  0.00    -0.548 OA
ATOM     10  O   MET A  1       20.647  35.717  61.434  0.00  0.00    -0.548 OA
ENDBRANCH   1   8
BRANCH   1  11
ATOM     11  CB  MET A  1       21.066  34.637  58.265  0.00  0.00    +0.039 C 
BRANCH  11  12
ATOM     12  CG  MET A  1       20.714  33.272  57.667  0.00  0.00    +0.071 C 
BRANCH  12  14
ATOM     13  CE  MET A  1       18.761  32.252  56.017  0.00  0.00    +0.084 C 
ATOM     14  SD  MET A  1       20.156  33.403  55.938  0.00  0.00    -0.164 S 
ENDBRANCH  12  14
ENDBRANCH  11  12
ENDBRANCH   1  11
TORSDOF 6
ENDMDL
MODEL 4
REMARK VINA RESULT:      -4.3      2.851      3.491
REMARK  Name = *****
REMARK                            x       y       z     vdW  Elec       q    Type
REMARK                         _______ _______ _______ _____ _____    ______ ____
ROOT
ATOM      1  CA  MET A  1       28.035  23.669  65.514  0.00  0.00    +0.119 C 
ENDROOT
BRANCH   1   2
ATOM      2  N   MET A  1       27.615  25.077  65.505  0.00  0.00    -0.306 N 
ATOM      3  H   MET A  1       27.525  25.562  66.356  0.00  0.00    +0.149 HD
ATOM      4  C   UNK A  0       27.347  25.728  64.320  0.00  0.00    +0.228 C 
ATOM      5  O   UNK A  0       27.444  25.146  63.239  0.00  0.00    -0.275 OA
BRANCH   4   6
ATOM      6  C   UNK A  0       26.924  27.174  64.456  0.00  0.00    +0.204 C 
ATOM      7 CL   UNK A  0       25.385  27.406  63.607  0.00  0.00    -0.116 Cl
ENDBRANCH   4   6
ENDBRANCH   1   2
BRANCH   1   8
ATOM      8  C   MET A  1       27.518  23.000  66.800  0.00  0.00    +0.062 C 
ATOM      9  OXT MET A  1       28.502  22.440  67.547  0.00  0.00    -0.548 OA
ATOM     10  O   MET A  1       26.341  22.940  67.128  0.00  0.00    -0.548 OA
ENDBRANCH   1   8
BRANCH   1  11
ATOM     11  CB  MET A  1       29.565  23.583  65.393  0.00  0.00    +0.039 C 
BRANCH  11  12
ATOM     12  CG  MET A  1       30.081  22.823  64.168  0.00  0.00    +0.071 C 
BRANCH  12  14
ATOM     13  CE  MET A  1       31.233  20.362  63.729  0.00  0.00    +0.084 C 
ATOM     14  SD  MET A  1       29.634  21.058  64.216  0.00  0.00    -0.164 S 
ENDBRANCH  12  14
ENDBRANCH  11  12
ENDBRANCH   1  11
TORSDOF 6
ENDMDL
MODEL 5
REMARK VINA RESULT:      -4.2     14.867     15.717
REMARK  Name = *****
REMARK                            x       y       z     vdW  Elec       q    Type
REMARK                         _______ _______ _______ _____ _____    ______ ____
ROOT
ATOM      1  CA  MET A  1       19.943  33.390  56.953  0.00  0.00    +0.119 C 
ENDROOT
BRANCH   1   2
ATOM      2  N   MET A  1       19.513  34.381  57.949  0.00  0.00    -0.306 N 
ATOM      3  H   MET A  1       18.556  34.484  58.149  0.00  0.00    +0.149 HD
ATOM      4  C   UNK A  0       20.434  35.166  58.609  0.00  0.00    +0.228 C 
ATOM      5  O   UNK A  0       21.639  35.066  58.376  0.00  0.00    -0.275 OA
BRANCH   4   6
ATOM      6  C   UNK A  0       19.855  36.144  59.608  0.00  0.00    +0.204 C 
ATOM      7 CL   UNK A  0       20.644  35.901  61.176  0.00  0.00    -0.116 Cl
ENDBRANCH   4   6
ENDBRANCH   1   2
BRANCH   1   8
ATOM      8  C   MET A  1       19.772  33.988  55.545  0.00  0.00    +0.062 C 
ATOM      9  OXT MET A  1       18.968  35.080  55.519  0.00  0.00    -0.548 OA
ATOM     10  O   MET A  1       20.278  33.531  54.529  0.00  0.00    -0.548 OA
ENDBRANCH   1   8
BRANCH   1  11
ATOM     11  CB  MET A  1       19.140  32.093  57.130  0.00  0.00    +0.039 C 
BRANCH  11  12
ATOM     12  CG  MET A  1       17.646  32.283  57.409  0.00  0.00    +0.071 C 
BRANCH  12  14
ATOM     13  CE  MET A  1       17.728  30.895  55.034  0.00  0.00    +0.084 C 
ATOM     14  SD  MET A  1       16.631  32.033  55.918  0.00  0.00    -0.164 S 
ENDBRANCH  12  14
ENDBRANCH  11  12
ENDBRANCH   1  11
TORSDOF 6
ENDMDL
MODEL 6
REMARK VINA RESULT:      -4.1      3.060      4.443
REMARK  Name = *****
REMARK                            x       y       z     vdW  Elec       q    Type
REMARK                         _______ _______ _______ _____ _____    ______ ____
ROOT
ATOM      1  CA  MET A  1       29.561  23.545  64.871  0.00  0.00    +0.119 C 
ENDROOT
BRANCH   1   2
ATOM      2  N   MET A  1       28.348  24.367  64.984  0.00  0.00    -0.306 N 
ATOM      3  H   MET A  1       28.085  24.950  64.236  0.00  0.00    +0.149 HD
ATOM      4  C   UNK A  0       27.573  24.332  66.123  0.00  0.00    +0.228 C 
ATOM      5  O   UNK A  0       27.879  23.619  67.079  0.00  0.00    -0.275 OA
BRANCH   4   6
ATOM      6  C   UNK A  0       26.354  25.228  66.105  0.00  0.00    +0.204 C 
ATOM      7 CL   UNK A  0       26.335  26.203  67.586  0.00  0.00    -0.116 Cl
ENDBRANCH   4   6
ENDBRANCH   1   2
BRANCH   1   8
ATOM      8  C   MET A  1       30.601  24.299  64.023  0.00  0.00    +0.062 C 
ATOM      9  OXT MET A  1       30.163  25.504  63.582  0.00  0.00    -0.548 OA
ATOM     10  O   MET A  1       31.710  23.868  63.738  0.00  0.00    -0.548 OA
ENDBRANCH   1   8
BRANCH   1  11
ATOM     11  CB  MET A  1       29.207  22.177  64.268  0.00  0.00    +0.039 C 
BRANCH  11  12
ATOM     12  CG  MET A  1       29.859  20.973  64.953  0.00  0.00    +0.071 C 
BRANCH  12  14
ATOM     13  CE  MET A  1       31.181  18.575  64.675  0.00  0.00    +0.084 C 
ATOM     14  SD  MET A  1       31.164  20.224  63.927  0.00  0.00    -0.164 S 
ENDBRANCH  12  14
ENDBRANCH  11  12
ENDBRANCH   1  11
TORSDOF 6
ENDMDL
MODEL 7
REMARK VINA RESULT:      -4.1      2.847      3.848
REMARK  Name = *****
REMARK                            x       y       z     vdW  Elec       q    Type
REMARK                         _______ _______ _______ _____ _____    ______ ____
ROOT
ATOM      1  CA  MET A  1       28.914  23.176  66.159  0.00  0.00    +0.119 C 
ENDROOT
BRANCH   1   2
ATOM      2  N   MET A  1       28.707  24.051  64.997  0.00  0.00    -0.306 N 
ATOM      3  H   MET A  1       27.805  24.387  64.797  0.00  0.00    +0.149 HD
ATOM      4  C   UNK A  0       29.761  24.408  64.184  0.00  0.00    +0.228 C 
ATOM      5  O   UNK A  0       30.901  23.999  64.403  0.00  0.00    -0.275 OA
BRANCH   4   6
ATOM      6  C   UNK A  0       29.407  25.313  63.023  0.00  0.00    +0.204 C 
ATOM      7 CL   UNK A  0       30.745  26.441  62.743  0.00  0.00    -0.116 Cl
ENDBRANCH   4   6
ENDBRANCH   1   2
BRANCH   1   8
ATOM      8  C   MET A  1       28.651  21.718  65.742  0.00  0.00    +0.062 C 
ATOM      9  OXT MET A  1       28.114  20.965  66.734  0.00  0.00    -0.548 OA
ATOM     10  O   MET A  1       28.914  21.251  64.642  0.00  0.00    -0.548 OA
ENDBRANCH   1   8
BRANCH   1  11
ATOM     11  CB  MET A  1       28.002  23.621  67.313  0.00  0.00    +0.039 C 
BRANCH  11  12
ATOM     12  CG  MET A  1       26.627  24.146  66.892  0.00  0.00    +0.071 C 
BRANCH  12  14
ATOM     13  CE  MET A  1       26.171  26.543  65.619  0.00  0.00    +0.084 C 
ATOM     14  SD  MET A  1       26.412  25.908  67.298  0.00  0.00    -0.164 S 
ENDBRANCH  12  14
ENDBRANCH  11  12
ENDBRANCH   1  11
TORSDOF 6
ENDMDL
MODEL 8
REMARK VINA RESULT:      -4.1      3.033      4.998
REMARK  Name = *****
REMARK                            x       y       z     vdW  Elec       q    Type
REMARK                         _______ _______ _______ _____ _____    ______ ____
ROOT
ATOM      1  CA  MET A  1       29.694  20.903  65.422  0.00  0.00    +0.119 C 
ENDROOT
BRANCH   1   2
ATOM      2  N   MET A  1       28.843  21.686  64.517  0.00  0.00    -0.306 N 
ATOM      3  H   MET A  1       28.219  21.222  63.914  0.00  0.00    +0.149 HD
ATOM      4  C   UNK A  0       28.905  23.063  64.502  0.00  0.00    +0.228 C 
ATOM      5  O   UNK A  0       29.680  23.673  65.238  0.00  0.00    -0.275 OA
BRANCH   4   6
ATOM      6  C   UNK A  0       27.974  23.743  63.522  0.00  0.00    +0.204 C 
ATOM      7 CL   UNK A  0       26.642  24.493  64.418  0.00  0.00    -0.116 Cl
ENDBRANCH   4   6
ENDBRANCH   1   2
BRANCH   1   8
ATOM      8  C   MET A  1       30.535  19.917  64.591  0.00  0.00    +0.062 C 
ATOM      9  OXT MET A  1       30.941  18.831  65.295  0.00  0.00    -0.548 OA
ATOM     10  O   MET A  1       30.845  20.082  63.419  0.00  0.00    -0.548 OA
ENDBRANCH   1   8
BRANCH   1  11
ATOM     11  CB  MET A  1       28.823  20.183  66.463  0.00  0.00    +0.039 C 
BRANCH  11  12
ATOM     12  CG  MET A  1       28.443  21.020  67.687  0.00  0.00    +0.071 C 
BRANCH  12  14
ATOM     13  CE  MET A  1       27.118  23.428  67.841  0.00  0.00    +0.084 C 
ATOM     14  SD  MET A  1       26.748  21.676  67.571  0.00  0.00    -0.164 S 
ENDBRANCH  12  14
ENDBRANCH  11  12
ENDBRANCH   1  11
TORSDOF 6
ENDMDL
MODEL 9
REMARK VINA RESULT:      -4.0     14.832     16.041
REMARK  Name = *****
REMARK                            x       y       z     vdW  Elec       q    Type
REMARK                         _______ _______ _______ _____ _____    ______ ____
ROOT
ATOM      1  CA  MET A  1       19.970  33.176  56.787  0.00  0.00    +0.119 C 
ENDROOT
BRANCH   1   2
ATOM      2  N   MET A  1       19.445  34.419  56.206  0.00  0.00    -0.306 N 
ATOM      3  H   MET A  1       19.096  35.122  56.798  0.00  0.00    +0.149 HD
ATOM      4  C   UNK A  0       19.437  34.613  54.841  0.00  0.00    +0.228 C 
ATOM      5  O   UNK A  0       19.860  33.749  54.073  0.00  0.00    -0.275 OA
BRANCH   4   6
ATOM      6  C   UNK A  0       18.868  35.937  54.379  0.00  0.00    +0.204 C 
ATOM      7 CL   UNK A  0       19.931  37.245  54.930  0.00  0.00    -0.116 Cl
ENDBRANCH   4   6
ENDBRANCH   1   2
BRANCH   1   8
ATOM      8  C   MET A  1       18.793  32.322  57.291  0.00  0.00    +0.062 C 
ATOM      9  OXT MET A  1       17.682  33.048  57.567  0.00  0.00    -0.548 OA
ATOM     10  O   MET A  1       18.836  31.110  57.460  0.00  0.00    -0.548 OA
ENDBRANCH   1   8
BRANCH   1  11
ATOM     11  CB  MET A  1       20.965  33.508  57.910  0.00  0.00    +0.039 C 
BRANCH  11  12
ATOM     12  CG  MET A  1       21.282  34.996  58.083  0.00  0.00    +0.071 C 
BRANCH  12  14
ATOM     13  CE  MET A  1       19.729  37.132  58.857  0.00  0.00    +0.084 C 
ATOM     14  SD  MET A  1       20.534  35.686  59.593  0.00  0.00    -0.164 S 
ENDBRANCH  12  14
ENDBRANCH  11  12
ENDBRANCH   1  11
TORSDOF 6
ENDMDL
