MODEL 1
REMARK VINA RESULT:      -5.3      0.000      0.000
REMARK  Name = *****
REMARK                            x       y       z     vdW  Elec       q    Type
REMARK                         _______ _______ _______ _____ _____    ______ ____
ROOT
ATOM      1  N   LIG    1       27.672  22.932  65.199  0.00  0.00    -0.250 N 
ATOM      2  H   LIG    1       28.208  22.997  64.376  0.00  0.00    +0.169 HD
ATOM      3  C   LIG    1       28.014  22.018  66.188  0.00  0.00    +0.236 C 
ATOM      4  O   LIG    1       27.324  21.834  67.192  0.00  0.00    -0.274 OA
ENDROOT
BRANCH   1   5
ATOM      5  N   LIG    1       26.545  23.770  65.386  0.00  0.00    -0.229 NA
ATOM      6  H   LIG    1       26.040  23.848  64.503  0.00  0.00    +0.145 HD
BRANCH   5   8
ATOM      7  C   LIG    1       26.503  26.127  64.760  0.00  0.00    +0.035 C 
ATOM      8  C   LIG    1       26.950  25.133  65.836  0.00  0.00    +0.173 C 
BRANCH   8   9
ATOM      9  C   LIG    1       26.396  25.579  67.207  0.00  0.00    +0.406 C 
ATOM     10  F   LIG    1       26.239  24.524  68.046  0.00  0.00    -0.169 F 
ATOM     11  F   LIG    1       25.198  26.194  67.100  0.00  0.00    -0.169 F 
ATOM     12  F   LIG    1       27.245  26.441  67.815  0.00  0.00    -0.169 F 
ENDBRANCH   8   9
ENDBRANCH   5   8
ENDBRANCH   1   5
BRANCH   3  13
ATOM     13  C   LIG    1       29.309  21.272  65.931  0.00  0.00    +0.166 C 
BRANCH  13  14
ATOM     14  S   LIG    1       29.731  21.285  64.159  0.00  0.00    -0.146 S 
BRANCH  14  15
ATOM     15  C   LIG    1       31.227  22.348  64.223  0.00  0.00    +0.121 C 
BRANCH  15  16
ATOM     16  C   LIG    1       31.005  23.697  63.563  0.00  0.00    +0.052 C 
ATOM     17  O   LIG    1       29.943  24.397  64.026  0.00  0.00    -0.549 OA
ATOM     18  O   LIG    1       31.743  24.144  62.696  0.00  0.00    -0.549 OA
ENDBRANCH  15  16
ENDBRANCH  14  15
ENDBRANCH  13  14
ENDBRANCH   3  13
TORSDOF 7
ENDMDL
MODEL 2
REMARK VINA RESULT:      -5.3      2.339      2.927
REMARK  Name = *****
REMARK                            x       y       z     vdW  Elec       q    Type
REMARK                         _______ _______ _______ _____ _____    ______ ____
ROOT
ATOM      1  N   LIG    1       27.295  22.960  65.639  0.00  0.00    -0.250 N 
ATOM      2  H   LIG    1       27.757  22.311  65.060  0.00  0.00    +0.169 HD
ATOM      3  C   LIG    1       27.442  22.898  67.019  0.00  0.00    +0.236 C 
ATOM      4  O   LIG    1       26.814  23.625  67.789  0.00  0.00    -0.274 OA
ENDROOT
BRANCH   1   5
ATOM      5  N   LIG    1       26.473  23.966  65.072  0.00  0.00    -0.229 NA
ATOM      6  H   LIG    1       25.971  23.573  64.276  0.00  0.00    +0.145 HD
BRANCH   5   8
ATOM      7  C   LIG    1       27.974  24.723  63.305  0.00  0.00    +0.035 C 
ATOM      8  C   LIG    1       27.282  25.131  64.609  0.00  0.00    +0.173 C 
BRANCH   8   9
ATOM      9  C   LIG    1       26.500  26.443  64.386  0.00  0.00    +0.406 C 
ATOM     10  F   LIG    1       27.338  27.497  64.215  0.00  0.00    -0.169 F 
ATOM     11  F   LIG    1       25.685  26.738  65.422  0.00  0.00    -0.169 F 
ATOM     12  F   LIG    1       25.734  26.367  63.272  0.00  0.00    -0.169 F 
ENDBRANCH   8   9
ENDBRANCH   5   8
ENDBRANCH   1   5
BRANCH   3  13
ATOM     13  C   LIG    1       28.444  21.865  67.497  0.00  0.00    +0.166 C 
BRANCH  13  14
ATOM     14  S   LIG    1       28.169  20.259  66.680  0.00  0.00    -0.146 S 
BRANCH  14  15
ATOM     15  C   LIG    1       29.839  20.008  65.958  0.00  0.00    +0.121 C 
BRANCH  15  16
ATOM     16  C   LIG    1       30.075  20.878  64.736  0.00  0.00    +0.052 C 
ATOM     17  O   LIG    1       31.373  21.140  64.457  0.00  0.00    -0.549 OA
ATOM     18  O   LIG    1       29.168  21.294  64.029  0.00  0.00    -0.549 OA
ENDBRANCH  15  16
ENDBRANCH  14  15
ENDBRANCH  13  14
ENDBRANCH   3  13
TORSDOF 7
ENDMDL
MODEL 3
REMARK VINA RESULT:      -5.3      1.885      3.808
REMARK  Name = *****
REMARK                            x       y       z     vdW  Elec       q    Type
REMARK                         _______ _______ _______ _____ _____    ______ ____
ROOT
ATOM      1  N   LIG    1       29.176  24.399  64.671  0.00  0.00    -0.250 N 
ATOM      2  H   LIG    1       28.826  23.819  65.386  0.00  0.00    +0.169 HD
ATOM      3  C   LIG    1       30.280  24.004  63.925  0.00  0.00    +0.236 C 
ATOM      4  O   LIG    1       30.810  24.732  63.086  0.00  0.00    -0.274 OA
ENDROOT
BRANCH   1   5
ATOM      5  N   LIG    1       28.559  25.645  64.396  0.00  0.00    -0.229 NA
ATOM      6  H   LIG    1       28.632  26.240  65.221  0.00  0.00    +0.145 HD
BRANCH   5   8
ATOM      7  C   LIG    1       26.564  24.345  64.921  0.00  0.00    +0.035 C 
ATOM      8  C   LIG    1       27.119  25.472  64.046  0.00  0.00    +0.173 C 
BRANCH   8   9
ATOM      9  C   LIG    1       26.235  26.728  64.207  0.00  0.00    +0.406 C 
ATOM     10  F   LIG    1       25.266  26.777  63.259  0.00  0.00    -0.169 F 
ATOM     11  F   LIG    1       26.948  27.872  64.117  0.00  0.00    -0.169 F 
ATOM     12  F   LIG    1       25.610  26.729  65.408  0.00  0.00    -0.169 F 
ENDBRANCH   8   9
ENDBRANCH   5   8
ENDBRANCH   1   5
BRANCH   3  13
ATOM     13  C   LIG    1       30.769  22.601  64.225  0.00  0.00    +0.166 C 
BRANCH  13  14
ATOM     14  S   LIG    1       29.400  21.401  64.155  0.00  0.00    -0.146 S 
BRANCH  14  15
ATOM     15  C   LIG    1       29.428  20.825  65.899  0.00  0.00    +0.121 C 
BRANCH  15  16
ATOM     16  C   LIG    1       28.410  21.549  66.762  0.00  0.00    +0.052 C 
ATOM     17  O   LIG    1       27.273  20.861  67.016  0.00  0.00    -0.549 OA
ATOM     18  O   LIG    1       28.605  22.665  67.226  0.00  0.00    -0.549 OA
ENDBRANCH  15  16
ENDBRANCH  14  15
ENDBRANCH  13  14
ENDBRANCH   3  13
TORSDOF 7
ENDMDL
MODEL 4
REMARK VINA RESULT:      -5.2      8.607     10.319
REMARK  Name = *****
REMARK                            x       y       z     vdW  Elec       q    Type
REMARK                         _______ _______ _______ _____ _____    ______ ____
ROOT
ATOM      1  N   LIG    1       35.179  24.285  60.656  0.00  0.00    -0.250 N 
ATOM      2  H   LIG    1       35.118  23.983  61.592  0.00  0.00    +0.169 HD
ATOM      3  C   LIG    1       35.883  25.440  60.336  0.00  0.00    +0.236 C 
ATOM      4  O   LIG    1       35.910  25.908  59.198  0.00  0.00    -0.274 OA
ENDROOT
BRANCH   1   5
ATOM      5  N   LIG    1       34.549  23.546  59.625  0.00  0.00    -0.229 NA
ATOM      6  H   LIG    1       33.857  22.922  60.039  0.00  0.00    +0.145 HD
BRANCH   5   8
ATOM      7  C   LIG    1       36.403  21.981  59.872  0.00  0.00    +0.035 C 
ATOM      8  C   LIG    1       35.537  22.734  58.857  0.00  0.00    +0.173 C 
BRANCH   8   9
ATOM      9  C   LIG    1       34.940  21.729  57.848  0.00  0.00    +0.406 C 
ATOM     10  F   LIG    1       34.738  20.515  58.417  0.00  0.00    -0.169 F 
ATOM     11  F   LIG    1       35.739  21.546  56.773  0.00  0.00    -0.169 F 
ATOM     12  F   LIG    1       33.738  22.156  57.395  0.00  0.00    -0.169 F 
ENDBRANCH   8   9
ENDBRANCH   5   8
ENDBRANCH   1   5
BRANCH   3  13
ATOM     13  C   LIG    1       36.618  26.069  61.503  0.00  0.00    +0.166 C 
BRANCH  13  14
ATOM     14  S   LIG    1       35.534  26.210  62.961  0.00  0.00    -0.146 S 
BRANCH  14  15
ATOM     15  C   LIG    1       34.307  27.405  62.298  0.00  0.00    +0.121 C 
BRANCH  15  16
ATOM     16  C   LIG    1       32.951  26.766  62.059  0.00  0.00    +0.052 C 
ATOM     17  O   LIG    1       31.980  27.611  61.642  0.00  0.00    -0.549 OA
ATOM     18  O   LIG    1       32.745  25.568  62.199  0.00  0.00    -0.549 OA
ENDBRANCH  15  16
ENDBRANCH  14  15
ENDBRANCH  13  14
ENDBRANCH   3  13
TORSDOF 7
ENDMDL
MODEL 5
REMARK VINA RESULT:      -5.2      2.371      4.363
REMARK  Name = *****
REMARK                            x       y       z     vdW  Elec       q    Type
REMARK                         _______ _______ _______ _____ _____    ______ ____
ROOT
ATOM      1  N   LIG    1       28.025  23.381  66.314  0.00  0.00    -0.250 N 
ATOM      2  H   LIG    1       27.419  22.779  66.803  0.00  0.00    +0.169 HD
ATOM      3  C   LIG    1       29.044  22.860  65.524  0.00  0.00    +0.236 C 
ATOM      4  O   LIG    1       29.883  23.569  64.968  0.00  0.00    -0.274 OA
ENDROOT
BRANCH   1   5
ATOM      5  N   LIG    1       27.869  24.786  66.409  0.00  0.00    -0.229 NA
ATOM      6  H   LIG    1       27.787  25.045  67.393  0.00  0.00    +0.145 HD
BRANCH   5   8
ATOM      7  C   LIG    1       25.879  26.180  66.620  0.00  0.00    +0.035 C 
ATOM      8  C   LIG    1       26.650  25.247  65.683  0.00  0.00    +0.173 C 
BRANCH   8   9
ATOM      9  C   LIG    1       26.902  25.964  64.339  0.00  0.00    +0.406 C 
ATOM     10  F   LIG    1       27.714  27.039  64.494  0.00  0.00    -0.169 F 
ATOM     11  F   LIG    1       25.757  26.400  63.768  0.00  0.00    -0.169 F 
ATOM     12  F   LIG    1       27.510  25.137  63.455  0.00  0.00    -0.169 F 
ENDBRANCH   8   9
ENDBRANCH   5   8
ENDBRANCH   1   5
BRANCH   3  13
ATOM     13  C   LIG    1       29.029  21.349  65.399  0.00  0.00    +0.166 C 
BRANCH  13  14
ATOM     14  S   LIG    1       28.998  20.557  67.040  0.00  0.00    -0.146 S 
BRANCH  14  15
ATOM     15  C   LIG    1       27.306  19.845  66.988  0.00  0.00    +0.121 C 
BRANCH  15  16
ATOM     16  C   LIG    1       26.368  20.513  67.978  0.00  0.00    +0.052 C 
ATOM     17  O   LIG    1       25.954  21.754  67.632  0.00  0.00    -0.549 OA
ATOM     18  O   LIG    1       25.983  19.968  69.003  0.00  0.00    -0.549 OA
ENDBRANCH  15  16
ENDBRANCH  14  15
ENDBRANCH  13  14
ENDBRANCH   3  13
TORSDOF 7
ENDMDL
MODEL 6
REMARK VINA RESULT:      -5.2      2.515      3.155
REMARK  Name = *****
REMARK                            x       y       z     vdW  Elec       q    Type
REMARK                         _______ _______ _______ _____ _____    ______ ____
ROOT
ATOM      1  N   LIG    1       28.099  23.976  65.101  0.00  0.00    -0.250 N 
ATOM      2  H   LIG    1       28.676  23.738  65.862  0.00  0.00    +0.169 HD
ATOM      3  C   LIG    1       28.661  24.342  63.883  0.00  0.00    +0.236 C 
ATOM      4  O   LIG    1       27.988  24.737  62.931  0.00  0.00    -0.274 OA
ENDROOT
BRANCH   1   5
ATOM      5  N   LIG    1       26.689  23.951  65.236  0.00  0.00    -0.229 NA
ATOM      6  H   LIG    1       26.277  24.562  64.530  0.00  0.00    +0.145 HD
BRANCH   5   8
ATOM      7  C   LIG    1       27.230  23.808  67.610  0.00  0.00    +0.035 C 
ATOM      8  C   LIG    1       26.265  24.417  66.588  0.00  0.00    +0.173 C 
BRANCH   8   9
ATOM      9  C   LIG    1       26.212  25.948  66.784  0.00  0.00    +0.406 C 
ATOM     10  F   LIG    1       24.971  26.358  67.150  0.00  0.00    -0.169 F 
ATOM     11  F   LIG    1       26.546  26.621  65.660  0.00  0.00    -0.169 F 
ATOM     12  F   LIG    1       27.060  26.340  67.763  0.00  0.00    -0.169 F 
ENDBRANCH   8   9
ENDBRANCH   5   8
ENDBRANCH   1   5
BRANCH   3  13
ATOM     13  C   LIG    1       30.170  24.206  63.824  0.00  0.00    +0.166 C 
BRANCH  13  14
ATOM     14  S   LIG    1       30.927  25.653  63.017  0.00  0.00    -0.146 S 
BRANCH  14  15
ATOM     15  C   LIG    1       32.682  25.113  63.034  0.00  0.00    +0.121 C 
BRANCH  15  16
ATOM     16  C   LIG    1       33.533  25.887  62.042  0.00  0.00    +0.052 C 
ATOM     17  O   LIG    1       33.246  27.205  61.940  0.00  0.00    -0.549 OA
ATOM     18  O   LIG    1       34.437  25.373  61.397  0.00  0.00    -0.549 OA
ENDBRANCH  15  16
ENDBRANCH  14  15
ENDBRANCH  13  14
ENDBRANCH   3  13
TORSDOF 7
ENDMDL
MODEL 7
REMARK VINA RESULT:      -5.1      8.541     10.077
REMARK  Name = *****
REMARK                            x       y       z     vdW  Elec       q    Type
REMARK                         _______ _______ _______ _____ _____    ______ ____
ROOT
ATOM      1  N   LIG    1       34.757  24.723  61.087  0.00  0.00    -0.250 N 
ATOM      2  H   LIG    1       35.716  24.944  61.094  0.00  0.00    +0.169 HD
ATOM      3  C   LIG    1       33.888  25.339  61.980  0.00  0.00    +0.236 C 
ATOM      4  O   LIG    1       32.700  25.031  62.073  0.00  0.00    -0.274 OA
ENDROOT
BRANCH   1   5
ATOM      5  N   LIG    1       34.248  23.775  60.165  0.00  0.00    -0.229 NA
ATOM      6  H   LIG    1       33.970  22.935  60.674  0.00  0.00    +0.145 HD
BRANCH   5   8
ATOM      7  C   LIG    1       36.647  23.524  59.807  0.00  0.00    +0.035 C 
ATOM      8  C   LIG    1       35.272  23.407  59.144  0.00  0.00    +0.173 C 
BRANCH   8   9
ATOM      9  C   LIG    1       35.121  22.004  58.519  0.00  0.00    +0.406 C 
ATOM     10  F   LIG    1       34.098  21.964  57.628  0.00  0.00    -0.169 F 
ATOM     11  F   LIG    1       34.887  21.051  59.448  0.00  0.00    -0.169 F 
ATOM     12  F   LIG    1       36.242  21.651  57.845  0.00  0.00    -0.169 F 
ENDBRANCH   8   9
ENDBRANCH   5   8
ENDBRANCH   1   5
BRANCH   3  13
ATOM     13  C   LIG    1       34.526  26.426  62.825  0.00  0.00    +0.166 C 
BRANCH  13  14
ATOM     14  S   LIG    1       36.295  26.608  62.431  0.00  0.00    -0.146 S 
BRANCH  14  15
ATOM     15  C   LIG    1       36.228  28.196  61.510  0.00  0.00    +0.121 C 
BRANCH  15  16
ATOM     16  C   LIG    1       35.803  28.007  60.065  0.00  0.00    +0.052 C 
ATOM     17  O   LIG    1       35.112  29.039  59.527  0.00  0.00    -0.549 OA
ATOM     18  O   LIG    1       36.084  27.011  59.413  0.00  0.00    -0.549 OA
ENDBRANCH  15  16
ENDBRANCH  14  15
ENDBRANCH  13  14
ENDBRANCH   3  13
TORSDOF 7
ENDMDL
MODEL 8
REMARK VINA RESULT:      -5.1      8.521      9.904
REMARK  Name = *****
REMARK                            x       y       z     vdW  Elec       q    Type
REMARK                         _______ _______ _______ _____ _____    ______ ____
ROOT
ATOM      1  N   LIG    1       34.787  24.585  61.188  0.00  0.00    -0.250 N 
ATOM      2  H   LIG    1       35.768  24.644  61.247  0.00  0.00    +0.169 HD
ATOM      3  C   LIG    1       33.988  25.277  62.091  0.00  0.00    +0.236 C 
ATOM      4  O   LIG    1       32.763  25.164  62.118  0.00  0.00    -0.274 OA
ENDROOT
BRANCH   1   5
ATOM      5  N   LIG    1       34.177  23.795  60.183  0.00  0.00    -0.229 NA
ATOM      6  H   LIG    1       33.925  22.890  60.580  0.00  0.00    +0.145 HD
BRANCH   5   8
ATOM      7  C   LIG    1       36.475  24.111  59.432  0.00  0.00    +0.035 C 
ATOM      8  C   LIG    1       35.097  23.580  59.028  0.00  0.00    +0.173 C 
BRANCH   8   9
ATOM      9  C   LIG    1       35.232  22.121  58.542  0.00  0.00    +0.406 C 
ATOM     10  F   LIG    1       36.513  21.827  58.203  0.00  0.00    -0.169 F 
ATOM     11  F   LIG    1       34.458  21.866  57.464  0.00  0.00    -0.169 F 
ATOM     12  F   LIG    1       34.876  21.251  59.516  0.00  0.00    -0.169 F 
ENDBRANCH   8   9
ENDBRANCH   5   8
ENDBRANCH   1   5
BRANCH   3  13
ATOM     13  C   LIG    1       34.752  26.187  63.034  0.00  0.00    +0.166 C 
BRANCH  13  14
ATOM     14  S   LIG    1       35.823  27.336  62.111  0.00  0.00    -0.146 S 
BRANCH  14  15
ATOM     15  C   LIG    1       34.778  28.843  62.197  0.00  0.00    +0.121 C 
BRANCH  15  16
ATOM     16  C   LIG    1       33.792  28.929  61.045  0.00  0.00    +0.052 C 
ATOM     17  O   LIG    1       32.559  28.434  61.303  0.00  0.00    -0.549 OA
ATOM     18  O   LIG    1       34.072  29.433  59.966  0.00  0.00    -0.549 OA
ENDBRANCH  15  16
ENDBRANCH  14  15
ENDBRANCH  13  14
ENDBRANCH   3  13
TORSDOF 7
ENDMDL
MODEL 9
REMARK VINA RESULT:      -5.0     15.343     16.463
REMARK  Name = *****
REMARK                            x       y       z     vdW  Elec       q    Type
REMARK                         _______ _______ _______ _____ _____    ______ ____
ROOT
ATOM      1  N   LIG    1       18.712  34.374  57.406  0.00  0.00    -0.250 N 
ATOM      2  H   LIG    1       19.389  33.746  57.066  0.00  0.00    +0.169 HD
ATOM      3  C   LIG    1       17.624  34.728  56.616  0.00  0.00    +0.236 C 
ATOM      4  O   LIG    1       16.802  35.578  56.958  0.00  0.00    -0.274 OA
ENDROOT
BRANCH   1   5
ATOM      5  N   LIG    1       18.836  34.925  58.705  0.00  0.00    -0.229 NA
ATOM      6  H   LIG    1       18.357  35.825  58.731  0.00  0.00    +0.145 HD
BRANCH   5   8
ATOM      7  C   LIG    1       21.117  34.729  57.863  0.00  0.00    +0.035 C 
ATOM      8  C   LIG    1       20.268  35.128  59.073  0.00  0.00    +0.173 C 
BRANCH   8   9
ATOM      9  C   LIG    1       20.650  36.556  59.519  0.00  0.00    +0.406 C 
ATOM     10  F   LIG    1       21.720  37.022  58.828  0.00  0.00    -0.169 F 
ATOM     11  F   LIG    1       20.958  36.618  60.834  0.00  0.00    -0.169 F 
ATOM     12  F   LIG    1       19.633  37.421  59.296  0.00  0.00    -0.169 F 
ENDBRANCH   8   9
ENDBRANCH   5   8
ENDBRANCH   1   5
BRANCH   3  13
ATOM     13  C   LIG    1       17.532  33.976  55.302  0.00  0.00    +0.166 C 
BRANCH  13  14
ATOM     14  S   LIG    1       18.917  32.805  55.121  0.00  0.00    -0.146 S 
BRANCH  14  15
ATOM     15  C   LIG    1       18.002  31.231  55.355  0.00  0.00    +0.121 C 
BRANCH  15  16
ATOM     16  C   LIG    1       17.911  30.829  56.817  0.00  0.00    +0.052 C 
ATOM     17  O   LIG    1       18.913  31.285  57.604  0.00  0.00    -0.549 OA
ATOM     18  O   LIG    1       16.988  30.165  57.269  0.00  0.00    -0.549 OA
ENDBRANCH  15  16
ENDBRANCH  14  15
ENDBRANCH  13  14
ENDBRANCH   3  13
TORSDOF 7
ENDMDL
