MODEL 1
REMARK VINA RESULT:      -5.8      0.000      0.000
REMARK  Name = *****
REMARK                            x       y       z     vdW  Elec       q    Type
REMARK                         _______ _______ _______ _____ _____    ______ ____
ROOT
ATOM      1  N   LIG    1       29.731  24.109  65.147  0.00  0.00    -0.234 N 
ATOM      2  H   LIG    1       30.146  24.953  64.856  0.00  0.00    +0.173 HD
ATOM      3  C   LIG    1       30.188  22.901  64.667  0.00  0.00    +0.229 C 
ATOM      4  O   LIG    1       29.720  21.824  65.030  0.00  0.00    -0.274 OA
ENDROOT
BRANCH   1   6
ATOM      5  C   LIG    1       27.415  24.452  65.591  0.00  0.00    +0.232 C 
ATOM      6  N   LIG    1       28.671  24.111  66.051  0.00  0.00    -0.234 N 
ATOM      7  H   LIG    1       28.815  23.875  66.996  0.00  0.00    +0.173 HD
ATOM      8  O   LIG    1       27.192  24.694  64.407  0.00  0.00    -0.274 OA
BRANCH   5  10
ATOM      9  C   LIG    1       26.770  23.619  67.875  0.00  0.00    +0.017 C 
ATOM     10  C   LIG    1       26.351  24.476  66.683  0.00  0.00    +0.070 C 
ATOM     11  C   LIG    1       26.081  25.912  67.127  0.00  0.00    +0.017 C 
ENDBRANCH   5  10
ENDBRANCH   1   6
BRANCH   3  12
ATOM     12  C   LIG    1       31.302  23.048  63.652  0.00  0.00    +0.098 C 
BRANCH  12  13
ATOM     13  C   LIG    1       32.051  24.381  63.747  0.00  0.00    +0.015 C 
BRANCH  13  14
ATOM     14  C   LIG    1       32.016  25.226  62.469  0.00  0.00    +0.052 C 
BRANCH  14  15
ATOM     15  C   LIG    1       31.118  26.436  62.575  0.00  0.00    +0.042 C 
ATOM     16  O   LIG    1       31.547  27.465  61.809  0.00  0.00    -0.550 OA
ATOM     17  O   LIG    1       30.122  26.516  63.276  0.00  0.00    -0.550 OA
ENDBRANCH  14  15
ENDBRANCH  13  14
ENDBRANCH  12  13
ENDBRANCH   3  12
TORSDOF 6
ENDMDL
MODEL 2
REMARK VINA RESULT:      -5.6      1.928      5.539
REMARK  Name = *****
REMARK                            x       y       z     vdW  Elec       q    Type
REMARK                         _______ _______ _______ _____ _____    ______ ____
ROOT
ATOM      1  N   LIG    1       29.800  24.183  65.349  0.00  0.00    -0.234 N 
ATOM      2  H   LIG    1       30.182  24.250  66.254  0.00  0.00    +0.173 HD
ATOM      3  C   LIG    1       28.711  23.375  65.105  0.00  0.00    +0.229 C 
ATOM      4  O   LIG    1       28.185  23.289  63.998  0.00  0.00    -0.274 OA
ENDROOT
BRANCH   1   6
ATOM      5  C   LIG    1       31.403  24.342  63.593  0.00  0.00    +0.232 C 
ATOM      6  N   LIG    1       30.350  24.900  64.289  0.00  0.00    -0.234 N 
ATOM      7  H   LIG    1       29.996  25.786  64.042  0.00  0.00    +0.173 HD
ATOM      8  O   LIG    1       31.829  23.216  63.838  0.00  0.00    -0.274 OA
BRANCH   5  10
ATOM      9  C   LIG    1       31.207  26.573  62.449  0.00  0.00    +0.017 C 
ATOM     10  C   LIG    1       31.958  25.245  62.496  0.00  0.00    +0.070 C 
ATOM     11  C   LIG    1       33.451  25.484  62.712  0.00  0.00    +0.017 C 
ENDBRANCH   5  10
ENDBRANCH   1   6
BRANCH   3  12
ATOM     12  C   LIG    1       28.251  22.612  66.329  0.00  0.00    +0.098 C 
BRANCH  12  13
ATOM     13  C   LIG    1       27.501  23.474  67.348  0.00  0.00    +0.015 C 
BRANCH  13  14
ATOM     14  C   LIG    1       26.253  24.174  66.799  0.00  0.00    +0.052 C 
BRANCH  14  15
ATOM     15  C   LIG    1       26.365  25.680  66.790  0.00  0.00    +0.042 C 
ATOM     16  O   LIG    1       26.683  26.166  65.568  0.00  0.00    -0.550 OA
ATOM     17  O   LIG    1       26.210  26.404  67.761  0.00  0.00    -0.550 OA
ENDBRANCH  14  15
ENDBRANCH  13  14
ENDBRANCH  12  13
ENDBRANCH   3  12
TORSDOF 6
ENDMDL
MODEL 3
REMARK VINA RESULT:      -5.2      2.863      5.200
REMARK  Name = *****
REMARK                            x       y       z     vdW  Elec       q    Type
REMARK                         _______ _______ _______ _____ _____    ______ ____
ROOT
ATOM      1  N   LIG    1       28.050  22.392  64.766  0.00  0.00    -0.234 N 
ATOM      2  H   LIG    1       27.134  22.692  64.968  0.00  0.00    +0.173 HD
ATOM      3  C   LIG    1       28.949  23.242  64.159  0.00  0.00    +0.229 C 
ATOM      4  O   LIG    1       30.110  22.917  63.921  0.00  0.00    -0.274 OA
ENDROOT
BRANCH   1   6
ATOM      5  C   LIG    1       28.813  20.829  66.395  0.00  0.00    +0.232 C 
ATOM      6  N   LIG    1       28.463  21.101  65.087  0.00  0.00    -0.234 N 
ATOM      7  H   LIG    1       28.506  20.400  64.397  0.00  0.00    +0.173 HD
ATOM      8  O   LIG    1       28.715  21.665  67.289  0.00  0.00    -0.274 OA
BRANCH   5  10
ATOM      9  C   LIG    1       30.523  19.106  65.740  0.00  0.00    +0.017 C 
ATOM     10  C   LIG    1       29.305  19.401  66.610  0.00  0.00    +0.070 C 
ATOM     11  C   LIG    1       29.634  19.172  68.084  0.00  0.00    +0.017 C 
ENDBRANCH   5  10
ENDBRANCH   1   6
BRANCH   3  12
ATOM     12  C   LIG    1       28.353  24.591  63.815  0.00  0.00    +0.098 C 
BRANCH  12  13
ATOM     13  C   LIG    1       26.876  24.728  64.198  0.00  0.00    +0.015 C 
BRANCH  13  14
ATOM     14  C   LIG    1       26.599  25.725  65.329  0.00  0.00    +0.052 C 
BRANCH  14  15
ATOM     15  C   LIG    1       26.337  25.064  66.661  0.00  0.00    +0.042 C 
ATOM     16  O   LIG    1       26.213  25.961  67.667  0.00  0.00    -0.550 OA
ATOM     17  O   LIG    1       26.258  23.860  66.847  0.00  0.00    -0.550 OA
ENDBRANCH  14  15
ENDBRANCH  13  14
ENDBRANCH  12  13
ENDBRANCH   3  12
TORSDOF 6
ENDMDL
MODEL 4
REMARK VINA RESULT:      -5.2      2.558      4.338
REMARK  Name = *****
REMARK                            x       y       z     vdW  Elec       q    Type
REMARK                         _______ _______ _______ _____ _____    ______ ____
ROOT
ATOM      1  N   LIG    1       26.722  23.493  65.753  0.00  0.00    -0.234 N 
ATOM      2  H   LIG    1       26.615  23.456  64.775  0.00  0.00    +0.173 HD
ATOM      3  C   LIG    1       26.591  24.687  66.428  0.00  0.00    +0.229 C 
ATOM      4  O   LIG    1       26.683  24.771  67.651  0.00  0.00    -0.274 OA
ENDROOT
BRANCH   1   6
ATOM      5  C   LIG    1       28.288  21.826  66.421  0.00  0.00    +0.232 C 
ATOM      6  N   LIG    1       27.009  22.342  66.483  0.00  0.00    -0.234 N 
ATOM      7  H   LIG    1       26.316  21.906  67.030  0.00  0.00    +0.173 HD
ATOM      8  O   LIG    1       29.190  22.379  65.796  0.00  0.00    -0.274 OA
BRANCH   5  10
ATOM      9  C   LIG    1       29.473  19.611  66.534  0.00  0.00    +0.017 C 
ATOM     10  C   LIG    1       28.464  20.534  67.212  0.00  0.00    +0.070 C 
ATOM     11  C   LIG    1       28.903  20.846  68.642  0.00  0.00    +0.017 C 
ENDBRANCH   5  10
ENDBRANCH   1   6
BRANCH   3  12
ATOM     12  C   LIG    1       26.336  25.864  65.510  0.00  0.00    +0.098 C 
BRANCH  12  13
ATOM     13  C   LIG    1       26.741  25.610  64.055  0.00  0.00    +0.015 C 
BRANCH  13  14
ATOM     14  C   LIG    1       28.212  25.900  63.740  0.00  0.00    +0.052 C 
BRANCH  14  15
ATOM     15  C   LIG    1       28.959  24.702  63.205  0.00  0.00    +0.042 C 
ATOM     16  O   LIG    1       28.140  23.656  62.949  0.00  0.00    -0.550 OA
ATOM     17  O   LIG    1       30.166  24.644  63.028  0.00  0.00    -0.550 OA
ENDBRANCH  14  15
ENDBRANCH  13  14
ENDBRANCH  12  13
ENDBRANCH   3  12
TORSDOF 6
ENDMDL
MODEL 5
REMARK VINA RESULT:      -5.2      3.433      5.974
REMARK  Name = *****
REMARK                            x       y       z     vdW  Elec       q    Type
REMARK                         _______ _______ _______ _____ _____    ______ ____
ROOT
ATOM      1  N   LIG    1       27.765  22.039  65.916  0.00  0.00    -0.234 N 
ATOM      2  H   LIG    1       27.150  21.893  66.671  0.00  0.00    +0.173 HD
ATOM      3  C   LIG    1       28.789  21.153  65.663  0.00  0.00    +0.229 C 
ATOM      4  O   LIG    1       29.556  21.281  64.712  0.00  0.00    -0.274 OA
ENDROOT
BRANCH   1   6
ATOM      5  C   LIG    1       26.754  24.151  65.470  0.00  0.00    +0.232 C 
ATOM      6  N   LIG    1       27.618  23.146  65.083  0.00  0.00    -0.234 N 
ATOM      7  H   LIG    1       28.119  23.209  64.237  0.00  0.00    +0.173 HD
ATOM      8  O   LIG    1       26.161  24.129  66.545  0.00  0.00    -0.274 OA
BRANCH   5  10
ATOM      9  C   LIG    1       26.330  26.607  65.136  0.00  0.00    +0.017 C 
ATOM     10  C   LIG    1       26.633  25.278  64.449  0.00  0.00    +0.070 C 
ATOM     11  C   LIG    1       27.914  25.384  63.624  0.00  0.00    +0.017 C 
ENDBRANCH   5  10
ENDBRANCH   1   6
BRANCH   3  12
ATOM     12  C   LIG    1       28.867  20.030  66.676  0.00  0.00    +0.098 C 
BRANCH  12  13
ATOM     13  C   LIG    1       28.705  20.496  68.126  0.00  0.00    +0.015 C 
BRANCH  13  14
ATOM     14  C   LIG    1       27.602  19.777  68.910  0.00  0.00    +0.052 C 
BRANCH  14  15
ATOM     15  C   LIG    1       26.253  19.829  68.232  0.00  0.00    +0.042 C 
ATOM     16  O   LIG    1       25.816  21.096  68.051  0.00  0.00    -0.550 OA
ATOM     17  O   LIG    1       25.598  18.857  67.890  0.00  0.00    -0.550 OA
ENDBRANCH  14  15
ENDBRANCH  13  14
ENDBRANCH  12  13
ENDBRANCH   3  12
TORSDOF 6
ENDMDL
MODEL 6
REMARK VINA RESULT:      -5.1      3.950      5.113
REMARK  Name = *****
REMARK                            x       y       z     vdW  Elec       q    Type
REMARK                         _______ _______ _______ _____ _____    ______ ____
ROOT
ATOM      1  N   LIG    1       27.523  21.631  66.448  0.00  0.00    -0.234 N 
ATOM      2  H   LIG    1       28.452  21.525  66.141  0.00  0.00    +0.173 HD
ATOM      3  C   LIG    1       26.910  20.641  67.185  0.00  0.00    +0.229 C 
ATOM      4  O   LIG    1       25.764  20.749  67.616  0.00  0.00    -0.274 OA
ENDROOT
BRANCH   1   6
ATOM      5  C   LIG    1       27.075  23.936  66.855  0.00  0.00    +0.232 C 
ATOM      6  N   LIG    1       26.800  22.783  66.147  0.00  0.00    -0.234 N 
ATOM      7  H   LIG    1       26.108  22.775  65.446  0.00  0.00    +0.173 HD
ATOM      8  O   LIG    1       27.970  23.993  67.694  0.00  0.00    -0.274 OA
BRANCH   5  10
ATOM      9  C   LIG    1       26.228  26.200  67.548  0.00  0.00    +0.017 C 
ATOM     10  C   LIG    1       26.180  25.112  66.478  0.00  0.00    +0.070 C 
ATOM     11  C   LIG    1       26.595  25.679  65.122  0.00  0.00    +0.017 C 
ENDBRANCH   5  10
ENDBRANCH   1   6
BRANCH   3  12
ATOM     12  C   LIG    1       27.787  19.424  67.391  0.00  0.00    +0.098 C 
BRANCH  12  13
ATOM     13  C   LIG    1       29.287  19.726  67.322  0.00  0.00    +0.015 C 
BRANCH  13  14
ATOM     14  C   LIG    1       30.062  18.888  66.300  0.00  0.00    +0.052 C 
BRANCH  14  15
ATOM     15  C   LIG    1       30.580  19.695  65.132  0.00  0.00    +0.042 C 
ATOM     16  O   LIG    1       30.116  20.965  65.137  0.00  0.00    -0.550 OA
ATOM     17  O   LIG    1       31.320  19.273  64.258  0.00  0.00    -0.550 OA
ENDBRANCH  14  15
ENDBRANCH  13  14
ENDBRANCH  12  13
ENDBRANCH   3  12
TORSDOF 6
ENDMDL
MODEL 7
REMARK VINA RESULT:      -5.1      3.481      5.591
REMARK  Name = *****
REMARK                            x       y       z     vdW  Elec       q    Type
REMARK                         _______ _______ _______ _____ _____    ______ ____
ROOT
ATOM      1  N   LIG    1       27.913  21.725  66.090  0.00  0.00    -0.234 N 
ATOM      2  H   LIG    1       27.720  21.132  66.852  0.00  0.00    +0.173 HD
ATOM      3  C   LIG    1       28.972  21.464  65.249  0.00  0.00    +0.229 C 
ATOM      4  O   LIG    1       29.228  22.159  64.268  0.00  0.00    -0.274 OA
ENDROOT
BRANCH   1   6
ATOM      5  C   LIG    1       27.165  23.892  66.741  0.00  0.00    +0.232 C 
ATOM      6  N   LIG    1       27.124  22.846  65.841  0.00  0.00    -0.234 N 
ATOM      7  H   LIG    1       26.549  22.890  65.043  0.00  0.00    +0.173 HD
ATOM      8  O   LIG    1       27.915  23.893  67.714  0.00  0.00    -0.274 OA
BRANCH   5  10
ATOM      9  C   LIG    1       26.263  26.128  67.456  0.00  0.00    +0.017 C 
ATOM     10  C   LIG    1       26.216  25.034  66.393  0.00  0.00    +0.070 C 
ATOM     11  C   LIG    1       26.560  25.609  65.020  0.00  0.00    +0.017 C 
ENDBRANCH   5  10
ENDBRANCH   1   6
BRANCH   3  12
ATOM     12  C   LIG    1       29.778  20.251  65.667  0.00  0.00    +0.098 C 
BRANCH  12  13
ATOM     13  C   LIG    1       29.039  19.324  66.636  0.00  0.00    +0.015 C 
BRANCH  13  14
ATOM     14  C   LIG    1       29.790  19.033  67.940  0.00  0.00    +0.052 C 
BRANCH  14  15
ATOM     15  C   LIG    1       29.383  19.935  69.081  0.00  0.00    +0.042 C 
ATOM     16  O   LIG    1       29.215  19.258  70.240  0.00  0.00    -0.550 OA
ATOM     17  O   LIG    1       29.202  21.140  68.997  0.00  0.00    -0.550 OA
ENDBRANCH  14  15
ENDBRANCH  13  14
ENDBRANCH  12  13
ENDBRANCH   3  12
TORSDOF 6
ENDMDL
MODEL 8
REMARK VINA RESULT:      -5.1      1.724      2.669
REMARK  Name = *****
REMARK                            x       y       z     vdW  Elec       q    Type
REMARK                         _______ _______ _______ _____ _____    ______ ____
ROOT
ATOM      1  N   LIG    1       30.751  24.157  64.496  0.00  0.00    -0.234 N 
ATOM      2  H   LIG    1       31.548  23.613  64.688  0.00  0.00    +0.173 HD
ATOM      3  C   LIG    1       30.680  24.917  63.349  0.00  0.00    +0.229 C 
ATOM      4  O   LIG    1       29.690  25.584  63.056  0.00  0.00    -0.274 OA
ENDROOT
BRANCH   1   6
ATOM      5  C   LIG    1       28.834  23.081  65.414  0.00  0.00    +0.232 C 
ATOM      6  N   LIG    1       29.672  24.177  65.378  0.00  0.00    -0.234 N 
ATOM      7  H   LIG    1       29.512  24.954  65.960  0.00  0.00    +0.173 HD
ATOM      8  O   LIG    1       29.040  22.073  64.744  0.00  0.00    -0.274 OA
BRANCH   5  10
ATOM      9  C   LIG    1       28.129  23.737  67.737  0.00  0.00    +0.017 C 
ATOM     10  C   LIG    1       27.658  23.244  66.372  0.00  0.00    +0.070 C 
ATOM     11  C   LIG    1       26.627  24.205  65.784  0.00  0.00    +0.017 C 
ENDBRANCH   5  10
ENDBRANCH   1   6
BRANCH   3  12
ATOM     12  C   LIG    1       31.940  24.848  62.511  0.00  0.00    +0.098 C 
BRANCH  12  13
ATOM     13  C   LIG    1       32.850  26.070  62.666  0.00  0.00    +0.015 C 
BRANCH  13  14
ATOM     14  C   LIG    1       32.390  27.313  61.898  0.00  0.00    +0.052 C 
BRANCH  14  15
ATOM     15  C   LIG    1       33.473  28.354  61.736  0.00  0.00    +0.042 C 
ATOM     16  O   LIG    1       34.589  27.850  61.162  0.00  0.00    -0.550 OA
ATOM     17  O   LIG    1       33.388  29.520  62.087  0.00  0.00    -0.550 OA
ENDBRANCH  14  15
ENDBRANCH  13  14
ENDBRANCH  12  13
ENDBRANCH   3  12
TORSDOF 6
ENDMDL
MODEL 9
REMARK VINA RESULT:      -5.0     15.144     16.363
REMARK  Name = *****
REMARK                            x       y       z     vdW  Elec       q    Type
REMARK                         _______ _______ _______ _____ _____    ______ ____
ROOT
ATOM      1  N   LIG    1       19.319  34.348  57.448  0.00  0.00    -0.234 N 
ATOM      2  H   LIG    1       18.985  35.274  57.445  0.00  0.00    +0.173 HD
ATOM      3  C   LIG    1       20.550  34.048  57.989  0.00  0.00    +0.229 C 
ATOM      4  O   LIG    1       20.989  32.902  58.043  0.00  0.00    -0.274 OA
ENDROOT
BRANCH   1   6
ATOM      5  C   LIG    1       17.407  32.929  57.565  0.00  0.00    +0.232 C 
ATOM      6  N   LIG    1       18.558  33.314  56.906  0.00  0.00    -0.234 N 
ATOM      7  H   LIG    1       18.835  32.867  56.074  0.00  0.00    +0.173 HD
ATOM      8  O   LIG    1       17.004  33.505  58.573  0.00  0.00    -0.274 OA
BRANCH   5  10
ATOM      9  C   LIG    1       16.612  31.934  55.398  0.00  0.00    +0.017 C 
ATOM     10  C   LIG    1       16.694  31.751  56.911  0.00  0.00    +0.070 C 
ATOM     11  C   LIG    1       17.408  30.445  57.252  0.00  0.00    +0.017 C 
ENDBRANCH   5  10
ENDBRANCH   1   6
BRANCH   3  12
ATOM     12  C   LIG    1       21.293  35.270  58.489  0.00  0.00    +0.098 C 
BRANCH  12  13
ATOM     13  C   LIG    1       20.483  36.125  59.468  0.00  0.00    +0.015 C 
BRANCH  13  14
ATOM     14  C   LIG    1       20.184  37.547  58.979  0.00  0.00    +0.052 C 
BRANCH  14  15
ATOM     15  C   LIG    1       18.870  37.664  58.244  0.00  0.00    +0.042 C 
ATOM     16  O   LIG    1       18.980  37.338  56.936  0.00  0.00    -0.550 OA
ATOM     17  O   LIG    1       17.814  38.025  58.741  0.00  0.00    -0.550 OA
ENDBRANCH  14  15
ENDBRANCH  13  14
ENDBRANCH  12  13
ENDBRANCH   3  12
TORSDOF 6
ENDMDL
