MODEL 1
REMARK VINA RESULT:      -5.9      0.000      0.000
REMARK  Name = *****
REMARK                            x       y       z     vdW  Elec       q    Type
REMARK                         _______ _______ _______ _____ _____    ______ ____
ROOT
ATOM      1  C   LIG    1       28.741  23.368  64.271  0.00  0.00    +0.220 C 
ATOM      2  N   LIG    1       28.041  23.967  65.293  0.00  0.00    -0.293 N 
ATOM      3  C   LIG    1       26.784  24.712  65.043  0.00  0.00    +0.122 C 
ATOM      4  C   LIG    1       26.209  24.951  66.447  0.00  0.00    +0.030 C 
ATOM      5  C   LIG    1       26.785  23.817  67.275  0.00  0.00    +0.021 C 
ATOM      6  C   LIG    1       28.190  23.682  66.716  0.00  0.00    +0.108 C 
ATOM      7  O   LIG    1       28.427  23.617  63.103  0.00  0.00    -0.275 OA
ENDROOT
BRANCH   3   8
ATOM      8  C   LIG    1       26.878  26.054  64.289  0.00  0.00    +0.062 C 
ATOM      9  O   LIG    1       25.842  26.331  63.467  0.00  0.00    -0.548 OA
ATOM     10  O   LIG    1       27.757  26.884  64.494  0.00  0.00    -0.548 OA
ENDBRANCH   3   8
BRANCH   1  12
ATOM     11  C   LIG    1       31.204  23.088  63.941  0.00  0.00    +0.018 C 
ATOM     12  C   LIG    1       29.953  22.499  64.596  0.00  0.00    +0.087 C 
BRANCH  12  13
ATOM     13  C   LIG    1       29.679  21.070  64.112  0.00  0.00    +0.121 C 
ATOM     14 CL   LIG    1       31.174  20.255  63.580  0.00  0.00    -0.125 Cl
ENDBRANCH  12  13
ENDBRANCH   1  12
TORSDOF 3
ENDMDL
MODEL 2
REMARK VINA RESULT:      -5.2     15.233     16.403
REMARK  Name = *****
REMARK                            x       y       z     vdW  Elec       q    Type
REMARK                         _______ _______ _______ _____ _____    ______ ____
ROOT
ATOM      1  C   LIG    1       18.864  34.253  57.589  0.00  0.00    +0.220 C 
ATOM      2  N   LIG    1       19.546  35.398  57.929  0.00  0.00    -0.293 N 
ATOM      3  C   LIG    1       18.879  36.526  58.623  0.00  0.00    +0.122 C 
ATOM      4  C   LIG    1       20.039  37.436  59.054  0.00  0.00    +0.030 C 
ATOM      5  C   LIG    1       21.221  36.490  59.168  0.00  0.00    +0.021 C 
ATOM      6  C   LIG    1       20.997  35.542  58.004  0.00  0.00    +0.108 C 
ATOM      7  O   LIG    1       17.633  34.239  57.685  0.00  0.00    -0.275 OA
ENDROOT
BRANCH   3   8
ATOM      8  C   LIG    1       17.843  37.350  57.831  0.00  0.00    +0.062 C 
ATOM      9  O   LIG    1       18.156  37.587  56.538  0.00  0.00    -0.548 OA
ATOM     10  O   LIG    1       16.751  37.676  58.283  0.00  0.00    -0.548 OA
ENDBRANCH   3   8
BRANCH   1  12
ATOM     11  C   LIG    1       19.867  33.299  55.507  0.00  0.00    +0.018 C 
ATOM     12  C   LIG    1       19.626  33.069  57.001  0.00  0.00    +0.087 C 
BRANCH  12  13
ATOM     13  C   LIG    1       18.819  31.790  57.253  0.00  0.00    +0.121 C 
ATOM     14 CL   LIG    1       18.073  31.173  55.755  0.00  0.00    -0.125 Cl
ENDBRANCH  12  13
ENDBRANCH   1  12
TORSDOF 3
ENDMDL
MODEL 3
REMARK VINA RESULT:      -5.1      3.658      5.376
REMARK  Name = *****
REMARK                            x       y       z     vdW  Elec       q    Type
REMARK                         _______ _______ _______ _____ _____    ______ ____
ROOT
ATOM      1  C   LIG    1       27.050  23.634  66.194  0.00  0.00    +0.220 C 
ATOM      2  N   LIG    1       28.176  22.862  66.020  0.00  0.00    -0.293 N 
ATOM      3  C   LIG    1       28.174  21.407  66.305  0.00  0.00    +0.122 C 
ATOM      4  C   LIG    1       29.502  20.911  65.714  0.00  0.00    +0.030 C 
ATOM      5  C   LIG    1       29.813  21.918  64.621  0.00  0.00    +0.021 C 
ATOM      6  C   LIG    1       29.353  23.226  65.238  0.00  0.00    +0.108 C 
ATOM      7  O   LIG    1       26.078  23.151  66.782  0.00  0.00    -0.275 OA
ENDROOT
BRANCH   3   8
ATOM      8  C   LIG    1       28.065  20.959  67.777  0.00  0.00    +0.062 C 
ATOM      9  O   LIG    1       29.019  21.442  68.603  0.00  0.00    -0.548 OA
ATOM     10  O   LIG    1       27.122  20.310  68.217  0.00  0.00    -0.548 OA
ENDBRANCH   3   8
BRANCH   1  12
ATOM     11  C   LIG    1       26.178  25.924  66.690  0.00  0.00    +0.018 C 
ATOM     12  C   LIG    1       27.066  25.096  65.759  0.00  0.00    +0.087 C 
BRANCH  12  13
ATOM     13  C   LIG    1       26.593  25.182  64.302  0.00  0.00    +0.121 C 
ATOM     14 CL   LIG    1       25.962  26.803  63.907  0.00  0.00    -0.125 Cl
ENDBRANCH  12  13
ENDBRANCH   1  12
TORSDOF 3
ENDMDL
MODEL 4
REMARK VINA RESULT:      -5.1      3.771      5.141
REMARK  Name = *****
REMARK                            x       y       z     vdW  Elec       q    Type
REMARK                         _______ _______ _______ _____ _____    ______ ____
ROOT
ATOM      1  C   LIG    1       28.818  20.552  66.873  0.00  0.00    +0.220 C 
ATOM      2  N   LIG    1       28.931  21.641  66.040  0.00  0.00    -0.293 N 
ATOM      3  C   LIG    1       29.176  21.487  64.586  0.00  0.00    +0.122 C 
ATOM      4  C   LIG    1       28.946  22.897  64.020  0.00  0.00    +0.030 C 
ATOM      5  C   LIG    1       27.994  23.538  65.014  0.00  0.00    +0.021 C 
ATOM      6  C   LIG    1       28.495  23.001  66.342  0.00  0.00    +0.108 C 
ATOM      7  O   LIG    1       29.118  19.435  66.442  0.00  0.00    -0.275 OA
ENDROOT
BRANCH   3   8
ATOM      8  C   LIG    1       30.558  20.970  64.136  0.00  0.00    +0.062 C 
ATOM      9  O   LIG    1       30.537  19.886  63.331  0.00  0.00    -0.548 OA
ATOM     10  O   LIG    1       31.608  21.554  64.378  0.00  0.00    -0.548 OA
ENDBRANCH   3   8
BRANCH   1  12
ATOM     11  C   LIG    1       29.514  20.174  69.244  0.00  0.00    +0.018 C 
ATOM     12  C   LIG    1       28.431  20.759  68.334  0.00  0.00    +0.087 C 
BRANCH  12  13
ATOM     13  C   LIG    1       27.068  20.101  68.581  0.00  0.00    +0.121 C 
ATOM     14 CL   LIG    1       25.787  20.843  67.586  0.00  0.00    -0.125 Cl
ENDBRANCH  12  13
ENDBRANCH   1  12
TORSDOF 3
ENDMDL
MODEL 5
REMARK VINA RESULT:      -5.0      2.700      3.733
REMARK  Name = *****
REMARK                            x       y       z     vdW  Elec       q    Type
REMARK                         _______ _______ _______ _____ _____    ______ ____
ROOT
ATOM      1  C   LIG    1       27.824  22.151  66.681  0.00  0.00    +0.220 C 
ATOM      2  N   LIG    1       27.612  23.475  66.374  0.00  0.00    -0.293 N 
ATOM      3  C   LIG    1       27.613  23.960  64.973  0.00  0.00    +0.122 C 
ATOM      4  C   LIG    1       27.064  25.391  65.075  0.00  0.00    +0.030 C 
ATOM      5  C   LIG    1       26.217  25.368  66.335  0.00  0.00    +0.021 C 
ATOM      6  C   LIG    1       27.027  24.477  67.259  0.00  0.00    +0.108 C 
ATOM      7  O   LIG    1       28.215  21.386  65.794  0.00  0.00    -0.275 OA
ENDROOT
BRANCH   3   8
ATOM      8  C   LIG    1       28.955  23.975  64.214  0.00  0.00    +0.062 C 
ATOM      9  O   LIG    1       28.872  24.238  62.892  0.00  0.00    -0.548 OA
ATOM     10  O   LIG    1       30.045  23.878  64.768  0.00  0.00    -0.548 OA
ENDBRANCH   3   8
BRANCH   1  12
ATOM     11  C   LIG    1       28.927  20.901  68.544  0.00  0.00    +0.018 C 
ATOM     12  C   LIG    1       27.678  21.680  68.125  0.00  0.00    +0.087 C 
BRANCH  12  13
ATOM     13  C   LIG    1       26.412  20.823  68.238  0.00  0.00    +0.121 C 
ATOM     14 CL   LIG    1       26.764  19.211  68.918  0.00  0.00    -0.125 Cl
ENDBRANCH  12  13
ENDBRANCH   1  12
TORSDOF 3
ENDMDL
MODEL 6
REMARK VINA RESULT:      -5.0     15.259     16.220
REMARK  Name = *****
REMARK                            x       y       z     vdW  Elec       q    Type
REMARK                         _______ _______ _______ _____ _____    ______ ____
ROOT
ATOM      1  C   LIG    1       19.795  34.826  57.488  0.00  0.00    +0.220 C 
ATOM      2  N   LIG    1       19.021  33.789  57.019  0.00  0.00    -0.293 N 
ATOM      3  C   LIG    1       19.370  33.057  55.778  0.00  0.00    +0.122 C 
ATOM      4  C   LIG    1       18.436  31.837  55.791  0.00  0.00    +0.030 C 
ATOM      5  C   LIG    1       18.134  31.625  57.264  0.00  0.00    +0.021 C 
ATOM      6  C   LIG    1       18.027  33.046  57.786  0.00  0.00    +0.108 C 
ATOM      7  O   LIG    1       20.684  35.284  56.765  0.00  0.00    -0.275 OA
ENDROOT
BRANCH   3   8
ATOM      8  C   LIG    1       19.228  33.801  54.435  0.00  0.00    +0.062 C 
ATOM      9  O   LIG    1       19.989  33.326  53.425  0.00  0.00    -0.548 OA
ATOM     10  O   LIG    1       18.402  34.685  54.238  0.00  0.00    -0.548 OA
ENDBRANCH   3   8
BRANCH   1  12
ATOM     11  C   LIG    1       18.779  36.806  58.628  0.00  0.00    +0.018 C 
ATOM     12  C   LIG    1       19.469  35.457  58.839  0.00  0.00    +0.087 C 
BRANCH  12  13
ATOM     13  C   LIG    1       20.769  35.605  59.639  0.00  0.00    +0.121 C 
ATOM     14 CL   LIG    1       20.454  35.734  61.391  0.00  0.00    -0.125 Cl
ENDBRANCH  12  13
ENDBRANCH   1  12
TORSDOF 3
ENDMDL
MODEL 7
REMARK VINA RESULT:      -4.9     15.483     17.406
REMARK  Name = *****
REMARK                            x       y       z     vdW  Elec       q    Type
REMARK                         _______ _______ _______ _____ _____    ______ ____
ROOT
ATOM      1  C   LIG    1       18.103  35.955  57.089  0.00  0.00    +0.220 C 
ATOM      2  N   LIG    1       19.189  35.343  57.670  0.00  0.00    -0.293 N 
ATOM      3  C   LIG    1       20.304  34.800  56.857  0.00  0.00    +0.122 C 
ATOM      4  C   LIG    1       21.397  34.484  57.889  0.00  0.00    +0.030 C 
ATOM      5  C   LIG    1       21.102  35.435  59.035  0.00  0.00    +0.021 C 
ATOM      6  C   LIG    1       19.584  35.447  59.071  0.00  0.00    +0.108 C 
ATOM      7  O   LIG    1       17.956  35.879  55.865  0.00  0.00    -0.275 OA
ENDROOT
BRANCH   3   8
ATOM      8  C   LIG    1       20.029  33.549  55.997  0.00  0.00    +0.062 C 
ATOM      9  O   LIG    1       19.443  32.518  56.644  0.00  0.00    -0.548 OA
ATOM     10  O   LIG    1       20.209  33.510  54.785  0.00  0.00    -0.548 OA
ENDBRANCH   3   8
BRANCH   1  12
ATOM     11  C   LIG    1       15.650  36.240  57.482  0.00  0.00    +0.018 C 
ATOM     12  C   LIG    1       17.050  36.617  57.973  0.00  0.00    +0.087 C 
BRANCH  12  13
ATOM     13  C   LIG    1       17.269  38.134  57.949  0.00  0.00    +0.121 C 
ATOM     14 CL   LIG    1       16.222  38.972  59.125  0.00  0.00    -0.125 Cl
ENDBRANCH  12  13
ENDBRANCH   1  12
TORSDOF 3
ENDMDL
MODEL 8
REMARK VINA RESULT:      -4.9     15.189     16.265
REMARK  Name = *****
REMARK                            x       y       z     vdW  Elec       q    Type
REMARK                         _______ _______ _______ _____ _____    ______ ____
ROOT
ATOM      1  C   LIG    1       19.361  34.513  57.658  0.00  0.00    +0.220 C 
ATOM      2  N   LIG    1       19.400  33.677  56.566  0.00  0.00    -0.293 N 
ATOM      3  C   LIG    1       18.258  32.797  56.217  0.00  0.00    +0.122 C 
ATOM      4  C   LIG    1       18.605  32.277  54.814  0.00  0.00    +0.030 C 
ATOM      5  C   LIG    1       19.507  33.355  54.239  0.00  0.00    +0.021 C 
ATOM      6  C   LIG    1       20.328  33.774  55.444  0.00  0.00    +0.108 C 
ATOM      7  O   LIG    1       18.443  34.389  58.474  0.00  0.00    -0.275 OA
ENDROOT
BRANCH   3   8
ATOM      8  C   LIG    1       17.954  31.605  57.148  0.00  0.00    +0.062 C 
ATOM      9  O   LIG    1       16.647  31.296  57.286  0.00  0.00    -0.548 OA
ATOM     10  O   LIG    1       18.824  30.896  57.642  0.00  0.00    -0.548 OA
ENDBRANCH   3   8
BRANCH   1  12
ATOM     11  C   LIG    1       20.900  35.482  59.373  0.00  0.00    +0.018 C 
ATOM     12  C   LIG    1       20.503  35.495  57.895  0.00  0.00    +0.087 C 
BRANCH  12  13
ATOM     13  C   LIG    1       20.056  36.890  57.441  0.00  0.00    +0.121 C 
ATOM     14 CL   LIG    1       19.049  37.694  58.675  0.00  0.00    -0.125 Cl
ENDBRANCH  12  13
ENDBRANCH   1  12
TORSDOF 3
ENDMDL
MODEL 9
REMARK VINA RESULT:      -4.9      4.063      5.744
REMARK  Name = *****
REMARK                            x       y       z     vdW  Elec       q    Type
REMARK                         _______ _______ _______ _____ _____    ______ ____
ROOT
ATOM      1  C   LIG    1       27.640  22.859  66.930  0.00  0.00    +0.220 C 
ATOM      2  N   LIG    1       27.287  21.589  67.327  0.00  0.00    -0.293 N 
ATOM      3  C   LIG    1       28.294  20.618  67.816  0.00  0.00    +0.122 C 
ATOM      4  C   LIG    1       27.453  19.476  68.407  0.00  0.00    +0.030 C 
ATOM      5  C   LIG    1       26.148  20.148  68.796  0.00  0.00    +0.021 C 
ATOM      6  C   LIG    1       25.940  21.141  67.667  0.00  0.00    +0.108 C 
ATOM      7  O   LIG    1       28.837  23.131  66.792  0.00  0.00    -0.275 OA
ENDROOT
BRANCH   3   8
ATOM      8  C   LIG    1       29.299  20.044  66.797  0.00  0.00    +0.062 C 
ATOM      9  O   LIG    1       30.137  19.099  67.277  0.00  0.00    -0.548 OA
ATOM     10  O   LIG    1       29.281  20.320  65.602  0.00  0.00    -0.548 OA
ENDBRANCH   3   8
BRANCH   1  12
ATOM     11  C   LIG    1       26.694  24.271  65.097  0.00  0.00    +0.018 C 
ATOM     12  C   LIG    1       26.552  23.864  66.565  0.00  0.00    +0.087 C 
BRANCH  12  13
ATOM     13  C   LIG    1       26.664  25.073  67.501  0.00  0.00    +0.121 C 
ATOM     14 CL   LIG    1       25.534  26.373  67.038  0.00  0.00    -0.125 Cl
ENDBRANCH  12  13
ENDBRANCH   1  12
TORSDOF 3
ENDMDL
