MODEL 1
REMARK VINA RESULT:      -4.9      0.000      0.000
REMARK  Name = *****
REMARK                            x       y       z     vdW  Elec       q    Type
REMARK                         _______ _______ _______ _____ _____    ______ ____
ROOT
ATOM      1  C   LIG    1       26.261  24.260  66.728  0.00  0.00    +0.060 C 
ATOM      2  C   LIG    1       26.399  25.781  66.880  0.00  0.00    +0.064 C 
ENDROOT
BRANCH   1   3
ATOM      3  N   LIG    1       26.797  23.764  65.451  0.00  0.00    +0.229 N 
ATOM      4  H   LIG    1       27.775  23.535  65.629  0.00  0.00    +0.202 HD
ATOM      5  H   LIG    1       26.234  22.964  65.163  0.00  0.00    +0.202 HD
BRANCH   3   6
ATOM      6  C   LIG    1       26.803  24.734  64.346  0.00  0.00    +0.135 C 
BRANCH   6   7
ATOM      7  C   LIG    1       28.010  24.591  63.420  0.00  0.00    +0.102 C 
BRANCH   7   8
ATOM      8  C   LIG    1       29.011  23.616  63.987  0.00  0.00    +0.047 C 
ATOM      9  O   LIG    1       28.754  22.338  63.618  0.00  0.00    -0.550 OA
ATOM     10  O   LIG    1       29.976  23.912  64.673  0.00  0.00    -0.550 OA
ENDBRANCH   7   8
ENDBRANCH   6   7
ENDBRANCH   3   6
ENDBRANCH   1   3
BRANCH   1  11
ATOM     11  C   LIG    1       27.009  23.584  67.899  0.00  0.00    +0.064 C 
BRANCH  11  12
ATOM     12  C   LIG    1       28.304  22.859  67.536  0.00  0.00    +0.102 C 
BRANCH  12  13
ATOM     13  P   LIG    1       28.310  21.092  67.800  0.00  0.00    +0.202 P 
ATOM     14  O   LIG    1       26.948  20.470  67.908  0.00  0.00    -0.291 OA
ATOM     15  C   LIG    1       29.310  20.407  66.493  0.00  0.00    +0.111 C 
BRANCH  13  16
ATOM     16  O   LIG    1       29.217  20.916  69.124  0.00  0.00    -0.328 OA
BRANCH  16  18
ATOM     17  C   LIG    1       30.620  19.460  70.381  0.00  0.00    +0.034 C 
ATOM     18  C   LIG    1       29.258  19.641  69.744  0.00  0.00    +0.164 C 
ENDBRANCH  16  18
ENDBRANCH  13  16
ENDBRANCH  12  13
ENDBRANCH  11  12
ENDBRANCH   1  11
TORSDOF 9
ENDMDL
MODEL 2
REMARK VINA RESULT:      -4.8      1.482      2.283
REMARK  Name = *****
REMARK                            x       y       z     vdW  Elec       q    Type
REMARK                         _______ _______ _______ _____ _____    ______ ____
ROOT
ATOM      1  C   LIG    1       26.234  24.249  66.708  0.00  0.00    +0.060 C 
ATOM      2  C   LIG    1       26.543  25.692  67.127  0.00  0.00    +0.064 C 
ENDROOT
BRANCH   1   3
ATOM      3  N   LIG    1       26.517  23.994  65.288  0.00  0.00    +0.229 N 
ATOM      4  H   LIG    1       27.366  23.427  65.270  0.00  0.00    +0.202 HD
ATOM      5  H   LIG    1       25.704  23.529  64.883  0.00  0.00    +0.202 HD
BRANCH   3   6
ATOM      6  C   LIG    1       26.809  25.185  64.475  0.00  0.00    +0.135 C 
BRANCH   6   7
ATOM      7  C   LIG    1       28.090  25.058  63.653  0.00  0.00    +0.102 C 
BRANCH   7   8
ATOM      8  C   LIG    1       28.779  23.745  63.927  0.00  0.00    +0.047 C 
ATOM      9  O   LIG    1       29.738  23.854  64.879  0.00  0.00    -0.550 OA
ATOM     10  O   LIG    1       28.507  22.679  63.398  0.00  0.00    -0.550 OA
ENDBRANCH   7   8
ENDBRANCH   6   7
ENDBRANCH   3   6
ENDBRANCH   1   3
BRANCH   1  11
ATOM     11  C   LIG    1       27.079  23.296  67.583  0.00  0.00    +0.064 C 
BRANCH  11  12
ATOM     12  C   LIG    1       26.833  21.802  67.374  0.00  0.00    +0.102 C 
BRANCH  12  13
ATOM     13  P   LIG    1       28.250  20.739  67.603  0.00  0.00    +0.202 P 
ATOM     14  O   LIG    1       29.062  21.032  68.831  0.00  0.00    -0.291 OA
ATOM     15  C   LIG    1       27.625  19.071  67.538  0.00  0.00    +0.111 C 
BRANCH  13  16
ATOM     16  O   LIG    1       29.069  20.906  66.221  0.00  0.00    -0.328 OA
BRANCH  16  18
ATOM     17  C   LIG    1       30.822  20.378  64.699  0.00  0.00    +0.034 C 
ATOM     18  C   LIG    1       29.973  19.878  65.848  0.00  0.00    +0.164 C 
ENDBRANCH  16  18
ENDBRANCH  13  16
ENDBRANCH  12  13
ENDBRANCH  11  12
ENDBRANCH   1  11
TORSDOF 9
ENDMDL
MODEL 3
REMARK VINA RESULT:      -4.5      3.111      4.265
REMARK  Name = *****
REMARK                            x       y       z     vdW  Elec       q    Type
REMARK                         _______ _______ _______ _____ _____    ______ ____
ROOT
ATOM      1  C   LIG    1       27.128  22.759  66.378  0.00  0.00    +0.060 C 
ATOM      2  C   LIG    1       26.426  22.437  67.704  0.00  0.00    +0.064 C 
ENDROOT
BRANCH   1   3
ATOM      3  N   LIG    1       26.614  23.981  65.741  0.00  0.00    +0.229 N 
ATOM      4  H   LIG    1       27.386  24.354  65.190  0.00  0.00    +0.202 HD
ATOM      5  H   LIG    1       25.797  23.726  65.185  0.00  0.00    +0.202 HD
BRANCH   3   6
ATOM      6  C   LIG    1       26.217  25.056  66.662  0.00  0.00    +0.135 C 
BRANCH   6   7
ATOM      7  C   LIG    1       25.999  26.399  65.968  0.00  0.00    +0.102 C 
BRANCH   7   8
ATOM      8  C   LIG    1       26.566  26.381  64.571  0.00  0.00    +0.047 C 
ATOM      9  O   LIG    1       27.851  26.807  64.529  0.00  0.00    -0.550 OA
ATOM     10  O   LIG    1       25.976  25.999  63.572  0.00  0.00    -0.550 OA
ENDBRANCH   7   8
ENDBRANCH   6   7
ENDBRANCH   3   6
ENDBRANCH   1   3
BRANCH   1  11
ATOM     11  C   LIG    1       28.641  22.918  66.654  0.00  0.00    +0.064 C 
BRANCH  11  12
ATOM     12  C   LIG    1       29.380  23.919  65.767  0.00  0.00    +0.102 C 
BRANCH  12  13
ATOM     13  P   LIG    1       29.696  23.390  64.090  0.00  0.00    +0.202 P 
ATOM     14  O   LIG    1       28.466  23.182  63.255  0.00  0.00    -0.291 OA
ATOM     15  C   LIG    1       30.832  24.582  63.408  0.00  0.00    +0.111 C 
BRANCH  13  16
ATOM     16  O   LIG    1       30.591  22.059  64.281  0.00  0.00    -0.328 OA
BRANCH  16  18
ATOM     17  C   LIG    1       31.079  19.826  63.615  0.00  0.00    +0.034 C 
ATOM     18  C   LIG    1       29.991  20.803  64.008  0.00  0.00    +0.164 C 
ENDBRANCH  16  18
ENDBRANCH  13  16
ENDBRANCH  12  13
ENDBRANCH  11  12
ENDBRANCH   1  11
TORSDOF 9
ENDMDL
MODEL 4
REMARK VINA RESULT:      -4.4     16.824     18.187
REMARK  Name = *****
REMARK                            x       y       z     vdW  Elec       q    Type
REMARK                         _______ _______ _______ _____ _____    ______ ____
ROOT
ATOM      1  C   LIG    1       17.786  35.227  57.531  0.00  0.00    +0.060 C 
ATOM      2  C   LIG    1       16.908  36.439  57.866  0.00  0.00    +0.064 C 
ENDROOT
BRANCH   1   3
ATOM      3  N   LIG    1       18.865  35.015  58.509  0.00  0.00    +0.229 N 
ATOM      4  H   LIG    1       18.940  35.887  59.033  0.00  0.00    +0.202 HD
ATOM      5  H   LIG    1       18.615  34.210  59.083  0.00  0.00    +0.202 HD
BRANCH   3   6
ATOM      6  C   LIG    1       20.198  34.769  57.939  0.00  0.00    +0.135 C 
BRANCH   6   7
ATOM      7  C   LIG    1       21.314  35.519  58.663  0.00  0.00    +0.102 C 
BRANCH   7   8
ATOM      8  C   LIG    1       20.754  36.399  59.751  0.00  0.00    +0.047 C 
ATOM      9  O   LIG    1       20.386  37.619  59.292  0.00  0.00    -0.550 OA
ATOM     10  O   LIG    1       20.602  36.071  60.918  0.00  0.00    -0.550 OA
ENDBRANCH   7   8
ENDBRANCH   6   7
ENDBRANCH   3   6
ENDBRANCH   1   3
BRANCH   1  11
ATOM     11  C   LIG    1       16.885  33.972  57.477  0.00  0.00    +0.064 C 
BRANCH  11  12
ATOM     12  C   LIG    1       16.938  33.168  56.179  0.00  0.00    +0.102 C 
BRANCH  12  13
ATOM     13  P   LIG    1       18.192  31.898  56.098  0.00  0.00    +0.202 P 
ATOM     14  O   LIG    1       18.680  31.413  57.433  0.00  0.00    -0.291 OA
ATOM     15  C   LIG    1       17.516  30.609  55.070  0.00  0.00    +0.111 C 
BRANCH  13  16
ATOM     16  O   LIG    1       19.342  32.568  55.184  0.00  0.00    -0.328 OA
BRANCH  16  18
ATOM     17  C   LIG    1       19.493  33.398  52.957  0.00  0.00    +0.034 C 
ATOM     18  C   LIG    1       18.989  33.667  54.360  0.00  0.00    +0.164 C 
ENDBRANCH  16  18
ENDBRANCH  13  16
ENDBRANCH  12  13
ENDBRANCH  11  12
ENDBRANCH   1  11
TORSDOF 9
ENDMDL
MODEL 5
REMARK VINA RESULT:      -4.4     16.852     18.257
REMARK  Name = *****
REMARK                            x       y       z     vdW  Elec       q    Type
REMARK                         _______ _______ _______ _____ _____    ______ ____
ROOT
ATOM      1  C   LIG    1       18.204  34.064  57.737  0.00  0.00    +0.060 C 
ATOM      2  C   LIG    1       16.852  33.764  58.398  0.00  0.00    +0.064 C 
ENDROOT
BRANCH   1   3
ATOM      3  N   LIG    1       19.160  34.699  58.656  0.00  0.00    +0.229 N 
ATOM      4  H   LIG    1       18.990  35.703  58.585  0.00  0.00    +0.202 HD
ATOM      5  H   LIG    1       18.999  34.320  59.589  0.00  0.00    +0.202 HD
BRANCH   3   6
ATOM      6  C   LIG    1       20.580  34.505  58.328  0.00  0.00    +0.135 C 
BRANCH   6   7
ATOM      7  C   LIG    1       21.457  35.698  58.700  0.00  0.00    +0.102 C 
BRANCH   7   8
ATOM      8  C   LIG    1       20.725  36.638  59.624  0.00  0.00    +0.047 C 
ATOM      9  O   LIG    1       20.651  36.166  60.891  0.00  0.00    -0.550 OA
ATOM     10  O   LIG    1       20.268  37.726  59.309  0.00  0.00    -0.550 OA
ENDBRANCH   7   8
ENDBRANCH   6   7
ENDBRANCH   3   6
ENDBRANCH   1   3
BRANCH   1  11
ATOM     11  C   LIG    1       18.796  32.736  57.213  0.00  0.00    +0.064 C 
BRANCH  11  12
ATOM     12  C   LIG    1       18.504  32.405  55.750  0.00  0.00    +0.102 C 
BRANCH  12  13
ATOM     13  P   LIG    1       17.350  31.071  55.468  0.00  0.00    +0.202 P 
ATOM     14  O   LIG    1       17.736  30.131  54.363  0.00  0.00    -0.291 OA
ATOM     15  C   LIG    1       17.131  30.273  57.046  0.00  0.00    +0.111 C 
BRANCH  13  16
ATOM     16  O   LIG    1       15.950  31.837  55.216  0.00  0.00    -0.328 OA
BRANCH  16  18
ATOM     17  C   LIG    1       15.288  33.216  53.392  0.00  0.00    +0.034 C 
ATOM     18  C   LIG    1       15.992  33.170  54.732  0.00  0.00    +0.164 C 
ENDBRANCH  16  18
ENDBRANCH  13  16
ENDBRANCH  12  13
ENDBRANCH  11  12
ENDBRANCH   1  11
TORSDOF 9
ENDMDL
MODEL 6
REMARK VINA RESULT:      -4.4     16.779     18.446
REMARK  Name = *****
REMARK                            x       y       z     vdW  Elec       q    Type
REMARK                         _______ _______ _______ _____ _____    ______ ____
ROOT
ATOM      1  C   LIG    1       20.289  34.461  56.349  0.00  0.00    +0.060 C 
ATOM      2  C   LIG    1       19.127  35.134  55.608  0.00  0.00    +0.064 C 
ENDROOT
BRANCH   1   3
ATOM      3  N   LIG    1       20.898  35.331  57.366  0.00  0.00    +0.229 N 
ATOM      4  H   LIG    1       21.890  35.378  57.135  0.00  0.00    +0.202 HD
ATOM      5  H   LIG    1       20.425  36.234  57.332  0.00  0.00    +0.202 HD
BRANCH   3   6
ATOM      6  C   LIG    1       20.828  34.836  58.749  0.00  0.00    +0.135 C 
BRANCH   6   7
ATOM      7  C   LIG    1       20.162  35.817  59.711  0.00  0.00    +0.102 C 
BRANCH   7   8
ATOM      8  C   LIG    1       19.686  37.048  58.982  0.00  0.00    +0.047 C 
ATOM      9  O   LIG    1       20.662  37.978  58.847  0.00  0.00    -0.550 OA
ATOM     10  O   LIG    1       18.567  37.209  58.520  0.00  0.00    -0.550 OA
ENDBRANCH   7   8
ENDBRANCH   6   7
ENDBRANCH   3   6
ENDBRANCH   1   3
BRANCH   1  11
ATOM     11  C   LIG    1       19.757  33.175  57.022  0.00  0.00    +0.064 C 
BRANCH  11  12
ATOM     12  C   LIG    1       18.872  32.283  56.153  0.00  0.00    +0.102 C 
BRANCH  12  13
ATOM     13  P   LIG    1       17.240  31.940  56.795  0.00  0.00    +0.202 P 
ATOM     14  O   LIG    1       17.048  30.541  57.306  0.00  0.00    -0.291 OA
ATOM     15  C   LIG    1       16.922  33.199  58.015  0.00  0.00    +0.111 C 
BRANCH  13  16
ATOM     16  O   LIG    1       16.267  32.328  55.566  0.00  0.00    -0.328 OA
BRANCH  16  18
ATOM     17  C   LIG    1       16.410  33.591  53.552  0.00  0.00    +0.034 C 
ATOM     18  C   LIG    1       16.804  32.308  54.253  0.00  0.00    +0.164 C 
ENDBRANCH  16  18
ENDBRANCH  13  16
ENDBRANCH  12  13
ENDBRANCH  11  12
ENDBRANCH   1  11
TORSDOF 9
ENDMDL
MODEL 7
REMARK VINA RESULT:      -4.3     16.843     18.026
REMARK  Name = *****
REMARK                            x       y       z     vdW  Elec       q    Type
REMARK                         _______ _______ _______ _____ _____    ______ ____
ROOT
ATOM      1  C   LIG    1       20.128  35.440  55.820  0.00  0.00    +0.060 C 
ATOM      2  C   LIG    1       18.708  36.003  55.678  0.00  0.00    +0.064 C 
ENDROOT
BRANCH   1   3
ATOM      3  N   LIG    1       20.734  35.743  57.126  0.00  0.00    +0.229 N 
ATOM      4  H   LIG    1       21.742  35.750  56.971  0.00  0.00    +0.202 HD
ATOM      5  H   LIG    1       20.360  36.636  57.446  0.00  0.00    +0.202 HD
BRANCH   3   6
ATOM      6  C   LIG    1       20.495  34.747  58.182  0.00  0.00    +0.135 C 
BRANCH   6   7
ATOM      7  C   LIG    1       19.653  35.282  59.339  0.00  0.00    +0.102 C 
BRANCH   7   8
ATOM      8  C   LIG    1       20.441  36.261  60.172  0.00  0.00    +0.047 C 
ATOM      9  O   LIG    1       20.630  35.826  61.440  0.00  0.00    -0.550 OA
ATOM     10  O   LIG    1       20.903  37.318  59.772  0.00  0.00    -0.550 OA
ENDBRANCH   7   8
ENDBRANCH   6   7
ENDBRANCH   3   6
ENDBRANCH   1   3
BRANCH   1  11
ATOM     11  C   LIG    1       20.067  33.908  55.622  0.00  0.00    +0.064 C 
BRANCH  11  12
ATOM     12  C   LIG    1       19.353  33.425  54.361  0.00  0.00    +0.102 C 
BRANCH  12  13
ATOM     13  P   LIG    1       18.070  32.207  54.609  0.00  0.00    +0.202 P 
ATOM     14  O   LIG    1       16.676  32.763  54.648  0.00  0.00    -0.291 OA
ATOM     15  C   LIG    1       18.315  30.975  53.344  0.00  0.00    +0.111 C 
BRANCH  13  16
ATOM     16  O   LIG    1       18.518  31.466  55.972  0.00  0.00    -0.328 OA
BRANCH  16  18
ATOM     17  C   LIG    1       17.099  30.057  57.265  0.00  0.00    +0.034 C 
ATOM     18  C   LIG    1       17.613  31.468  57.065  0.00  0.00    +0.164 C 
ENDBRANCH  16  18
ENDBRANCH  13  16
ENDBRANCH  12  13
ENDBRANCH  11  12
ENDBRANCH   1  11
TORSDOF 9
ENDMDL
MODEL 8
REMARK VINA RESULT:      -4.3      2.136      3.972
REMARK  Name = *****
REMARK                            x       y       z     vdW  Elec       q    Type
REMARK                         _______ _______ _______ _____ _____    ______ ____
ROOT
ATOM      1  C   LIG    1       30.564  21.829  64.461  0.00  0.00    +0.060 C 
ATOM      2  C   LIG    1       31.164  20.620  63.732  0.00  0.00    +0.064 C 
ENDROOT
BRANCH   1   3
ATOM      3  N   LIG    1       30.347  22.981  63.572  0.00  0.00    +0.229 N 
ATOM      4  H   LIG    1       31.026  23.686  63.858  0.00  0.00    +0.202 HD
ATOM      5  H   LIG    1       30.466  22.663  62.610  0.00  0.00    +0.202 HD
BRANCH   3   6
ATOM      6  C   LIG    1       29.028  23.624  63.677  0.00  0.00    +0.135 C 
BRANCH   6   7
ATOM      7  C   LIG    1       29.076  25.139  63.496  0.00  0.00    +0.102 C 
BRANCH   7   8
ATOM      8  C   LIG    1       27.806  25.782  63.991  0.00  0.00    +0.047 C 
ATOM      9  O   LIG    1       26.782  24.900  64.083  0.00  0.00    -0.550 OA
ATOM     10  O   LIG    1       27.686  26.953  64.317  0.00  0.00    -0.550 OA
ENDBRANCH   7   8
ENDBRANCH   6   7
ENDBRANCH   3   6
ENDBRANCH   1   3
BRANCH   1  11
ATOM     11  C   LIG    1       29.219  21.402  65.089  0.00  0.00    +0.064 C 
BRANCH  11  12
ATOM     12  C   LIG    1       29.308  20.408  66.247  0.00  0.00    +0.102 C 
BRANCH  12  13
ATOM     13  P   LIG    1       28.107  20.623  67.552  0.00  0.00    +0.202 P 
ATOM     14  O   LIG    1       26.799  19.922  67.323  0.00  0.00    -0.291 OA
ATOM     15  C   LIG    1       28.928  20.134  69.056  0.00  0.00    +0.111 C 
BRANCH  13  16
ATOM     16  O   LIG    1       27.977  22.227  67.679  0.00  0.00    -0.328 OA
BRANCH  16  18
ATOM     17  C   LIG    1       26.864  24.325  67.496  0.00  0.00    +0.034 C 
ATOM     18  C   LIG    1       26.712  22.819  67.429  0.00  0.00    +0.164 C 
ENDBRANCH  16  18
ENDBRANCH  13  16
ENDBRANCH  12  13
ENDBRANCH  11  12
ENDBRANCH   1  11
TORSDOF 9
ENDMDL
MODEL 9
REMARK VINA RESULT:      -4.3     16.934     19.191
REMARK  Name = *****
REMARK                            x       y       z     vdW  Elec       q    Type
REMARK                         _______ _______ _______ _____ _____    ______ ____
ROOT
ATOM      1  C   LIG    1       18.874  33.656  57.013  0.00  0.00    +0.060 C 
ATOM      2  C   LIG    1       19.065  32.143  57.181  0.00  0.00    +0.064 C 
ENDROOT
BRANCH   1   3
ATOM      3  N   LIG    1       19.446  34.430  58.125  0.00  0.00    +0.229 N 
ATOM      4  H   LIG    1       19.190  35.401  57.950  0.00  0.00    +0.202 HD
ATOM      5  H   LIG    1       19.069  34.056  58.996  0.00  0.00    +0.202 HD
BRANCH   3   6
ATOM      6  C   LIG    1       20.914  34.410  58.222  0.00  0.00    +0.135 C 
BRANCH   6   7
ATOM      7  C   LIG    1       21.505  35.724  58.728  0.00  0.00    +0.102 C 
BRANCH   7   8
ATOM      8  C   LIG    1       20.550  36.421  59.663  0.00  0.00    +0.047 C 
ATOM      9  O   LIG    1       20.443  35.790  60.857  0.00  0.00    -0.550 OA
ATOM     10  O   LIG    1       19.951  37.457  59.419  0.00  0.00    -0.550 OA
ENDBRANCH   7   8
ENDBRANCH   6   7
ENDBRANCH   3   6
ENDBRANCH   1   3
BRANCH   1  11
ATOM     11  C   LIG    1       19.540  34.087  55.687  0.00  0.00    +0.064 C 
BRANCH  11  12
ATOM     12  C   LIG    1       18.686  34.951  54.760  0.00  0.00    +0.102 C 
BRANCH  12  13
ATOM     13  P   LIG    1       18.298  36.589  55.359  0.00  0.00    +0.202 P 
ATOM     14  O   LIG    1       19.285  37.147  56.343  0.00  0.00    -0.291 OA
ATOM     15  C   LIG    1       18.082  37.601  53.909  0.00  0.00    +0.111 C 
BRANCH  13  16
ATOM     16  O   LIG    1       16.805  36.426  55.951  0.00  0.00    -0.328 OA
BRANCH  16  18
ATOM     17  C   LIG    1       15.692  35.472  57.828  0.00  0.00    +0.034 C 
ATOM     18  C   LIG    1       16.618  36.570  57.351  0.00  0.00    +0.164 C 
ENDBRANCH  16  18
ENDBRANCH  13  16
ENDBRANCH  12  13
ENDBRANCH  11  12
ENDBRANCH   1  11
TORSDOF 9
ENDMDL
