MODEL 1
REMARK VINA RESULT:      -5.7      0.000      0.000
REMARK  Name = 
REMARK  3 active torsions:
REMARK  status: ('A' for Active; 'I' for Inactive)
REMARK    1  A    between atoms: C_2  and  C_4
REMARK    2  A    between atoms: C_4  and  N_5
REMARK    3  A    between atoms: C_15  and  C_17
REMARK                            x       y       z     vdW  Elec       q    Type
REMARK                         _______ _______ _______ _____ _____    ______ ____
ROOT
ATOM      1  N   UNL     1      19.807  34.294  58.210  0.00  0.00    -0.295 N 
ATOM      2  H   UNL     1      19.193  33.993  58.945  0.00  0.00    +0.151 HD
ATOM      3  C   UNL     1      19.830  33.467  57.127  0.00  0.00    +0.303 C 
ATOM      4  N   UNL     1      18.595  32.983  56.704  0.00  0.00    -0.274 N 
ATOM      5  C   UNL     1      17.289  33.639  56.964  0.00  0.00    +0.160 C 
ATOM      6  C   UNL     1      16.882  33.784  58.430  0.00  0.00    +0.038 C 
ATOM      7  C   UNL     1      17.160  34.963  56.183  0.00  0.00    +0.233 C 
ATOM      8  O   UNL     1      16.739  36.003  56.689  0.00  0.00    -0.274 OA
ATOM      9  N   UNL     1      17.407  34.948  54.834  0.00  0.00    -0.314 N 
ATOM     10  H   UNL     1      17.240  35.847  54.398  0.00  0.00    +0.149 HD
ATOM     11  C   UNL     1      17.479  33.778  53.983  0.00  0.00    +0.106 C 
ATOM     12  C   UNL     1      18.709  32.912  54.219  0.00  0.00    +0.038 C 
ATOM     13  C   UNL     1      18.632  32.123  55.525  0.00  0.00    +0.111 C 
ATOM     14  O   UNL     1      20.882  33.177  56.559  0.00  0.00    -0.253 OA
ENDROOT
BRANCH   1  15
ATOM     15  C   UNL     1      21.018  34.942  58.674  0.00  0.00    +0.148 C 
BRANCH  15  17
ATOM     16  C   UNL     1      20.546  35.797  60.984  0.00  0.00    +0.021 C 
ATOM     17  C   UNL     1      20.661  36.015  59.667  0.00  0.00    +0.006 C 
ATOM     18 BR   UNL     1      20.324  37.708  58.935  0.00  0.00    -0.054 Br
ENDBRANCH  15  17
ENDBRANCH   1  15
TORSDOF 2
ENDMDL
MODEL 2
REMARK VINA RESULT:      -5.7      2.599      4.760
REMARK  Name = 
REMARK  3 active torsions:
REMARK  status: ('A' for Active; 'I' for Inactive)
REMARK    1  A    between atoms: C_2  and  C_4
REMARK    2  A    between atoms: C_4  and  N_5
REMARK    3  A    between atoms: C_15  and  C_17
REMARK                            x       y       z     vdW  Elec       q    Type
REMARK                         _______ _______ _______ _____ _____    ______ ____
ROOT
ATOM      1  N   UNL     1      19.492  33.720  55.812  0.00  0.00    -0.295 N 
ATOM      2  H   UNL     1      19.797  34.225  55.000  0.00  0.00    +0.151 HD
ATOM      3  C   UNL     1      20.273  33.907  56.913  0.00  0.00    +0.303 C 
ATOM      4  N   UNL     1      20.688  35.214  57.151  0.00  0.00    -0.274 N 
ATOM      5  C   UNL     1      19.991  36.431  56.663  0.00  0.00    +0.160 C 
ATOM      6  C   UNL     1      19.889  36.595  55.147  0.00  0.00    +0.038 C 
ATOM      7  C   UNL     1      18.632  36.619  57.368  0.00  0.00    +0.233 C 
ATOM      8  O   UNL     1      17.597  36.905  56.766  0.00  0.00    -0.274 OA
ATOM      9  N   UNL     1      18.601  36.589  58.739  0.00  0.00    -0.314 N 
ATOM     10  H   UNL     1      17.678  36.780  59.112  0.00  0.00    +0.149 HD
ATOM     11  C   UNL     1      19.737  36.706  59.631  0.00  0.00    +0.106 C 
ATOM     12  C   UNL     1      20.661  35.497  59.623  0.00  0.00    +0.038 C 
ATOM     13  C   UNL     1      21.500  35.404  58.349  0.00  0.00    +0.111 C 
ATOM     14  O   UNL     1      20.582  32.972  57.651  0.00  0.00    -0.253 OA
ENDROOT
BRANCH   1  15
ATOM     15  C   UNL     1      18.914  32.423  55.525  0.00  0.00    +0.148 C 
BRANCH  15  17
ATOM     16  C   UNL     1      16.691  33.331  56.249  0.00  0.00    +0.021 C 
ATOM     17  C   UNL     1      17.567  32.318  56.187  0.00  0.00    +0.006 C 
ATOM     18 BR   UNL     1      17.190  30.666  56.989  0.00  0.00    -0.054 Br
ENDBRANCH  15  17
ENDBRANCH   1  15
TORSDOF 2
ENDMDL
MODEL 3
REMARK VINA RESULT:      -5.7     17.095     18.568
REMARK  Name = 
REMARK  3 active torsions:
REMARK  status: ('A' for Active; 'I' for Inactive)
REMARK    1  A    between atoms: C_2  and  C_4
REMARK    2  A    between atoms: C_4  and  N_5
REMARK    3  A    between atoms: C_15  and  C_17
REMARK                            x       y       z     vdW  Elec       q    Type
REMARK                         _______ _______ _______ _____ _____    ______ ____
ROOT
ATOM      1  N   UNL     1      29.147  20.883  66.092  0.00  0.00    -0.295 N 
ATOM      2  H   UNL     1      30.086  21.120  65.828  0.00  0.00    +0.151 HD
ATOM      3  C   UNL     1      28.555  21.785  66.926  0.00  0.00    +0.303 C 
ATOM      4  N   UNL     1      28.762  23.126  66.616  0.00  0.00    -0.274 N 
ATOM      5  C   UNL     1      29.099  23.647  65.268  0.00  0.00    +0.160 C 
ATOM      6  C   UNL     1      30.418  23.165  64.663  0.00  0.00    +0.038 C 
ATOM      7  C   UNL     1      27.913  23.492  64.293  0.00  0.00    +0.233 C 
ATOM      8  O   UNL     1      28.038  23.060  63.147  0.00  0.00    -0.274 OA
ATOM      9  N   UNL     1      26.688  23.972  64.679  0.00  0.00    -0.314 N 
ATOM     10  H   UNL     1      25.987  23.879  63.953  0.00  0.00    +0.149 HD
ATOM     11  C   UNL     1      26.425  24.888  65.770  0.00  0.00    +0.106 C 
ATOM     12  C   UNL     1      26.625  24.282  67.152  0.00  0.00    +0.038 C 
ATOM     13  C   UNL     1      28.098  24.080  67.501  0.00  0.00    +0.111 C 
ATOM     14  O   UNL     1      27.877  21.426  67.887  0.00  0.00    -0.253 OA
ENDROOT
BRANCH   1  15
ATOM     15  C   UNL     1      28.915  19.461  66.253  0.00  0.00    +0.148 C 
BRANCH  15  17
ATOM     16  C   UNL     1      30.622  18.235  67.621  0.00  0.00    +0.021 C 
ATOM     17  C   UNL     1      30.231  18.760  66.452  0.00  0.00    +0.006 C 
ATOM     18 BR   UNL     1      31.348  18.705  64.947  0.00  0.00    -0.054 Br
ENDBRANCH  15  17
ENDBRANCH   1  15
TORSDOF 2
ENDMDL
MODEL 4
REMARK VINA RESULT:      -5.6     16.472     18.388
REMARK  Name = 
REMARK  3 active torsions:
REMARK  status: ('A' for Active; 'I' for Inactive)
REMARK    1  A    between atoms: C_2  and  C_4
REMARK    2  A    between atoms: C_4  and  N_5
REMARK    3  A    between atoms: C_15  and  C_17
REMARK                            x       y       z     vdW  Elec       q    Type
REMARK                         _______ _______ _______ _____ _____    ______ ____
ROOT
ATOM      1  N   UNL     1      33.352  27.090  61.984  0.00  0.00    -0.295 N 
ATOM      2  H   UNL     1      33.640  26.635  62.831  0.00  0.00    +0.151 HD
ATOM      3  C   UNL     1      34.254  27.988  61.495  0.00  0.00    +0.303 C 
ATOM      4  N   UNL     1      35.588  27.591  61.530  0.00  0.00    -0.274 N 
ATOM      5  C   UNL     1      36.057  26.183  61.555  0.00  0.00    +0.160 C 
ATOM      6  C   UNL     1      35.637  25.349  62.765  0.00  0.00    +0.038 C 
ATOM      7  C   UNL     1      35.766  25.470  60.218  0.00  0.00    +0.233 C 
ATOM      8  O   UNL     1      35.283  24.340  60.152  0.00  0.00    -0.274 OA
ATOM      9  N   UNL     1      36.179  26.072  59.057  0.00  0.00    -0.314 N 
ATOM     10  H   UNL     1      35.998  25.504  58.238  0.00  0.00    +0.149 HD
ATOM     11  C   UNL     1      37.132  27.157  58.940  0.00  0.00    +0.106 C 
ATOM     12  C   UNL     1      36.618  28.495  59.453  0.00  0.00    +0.038 C 
ATOM     13  C   UNL     1      36.539  28.552  60.977  0.00  0.00    +0.111 C 
ATOM     14  O   UNL     1      33.901  29.078  61.048  0.00  0.00    -0.253 OA
ENDROOT
BRANCH   1  15
ATOM     15  C   UNL     1      31.929  27.350  61.901  0.00  0.00    +0.148 C 
BRANCH  15  17
ATOM     16  C   UNL     1      30.030  26.460  63.277  0.00  0.00    +0.021 C 
ATOM     17  C   UNL     1      31.180  26.260  62.619  0.00  0.00    +0.006 C 
ATOM     18 BR   UNL     1      31.993  24.570  62.588  0.00  0.00    -0.054 Br
ENDBRANCH  15  17
ENDBRANCH   1  15
TORSDOF 2
ENDMDL
MODEL 5
REMARK VINA RESULT:      -5.6      2.430      5.459
REMARK  Name = 
REMARK  3 active torsions:
REMARK  status: ('A' for Active; 'I' for Inactive)
REMARK    1  A    between atoms: C_2  and  C_4
REMARK    2  A    between atoms: C_4  and  N_5
REMARK    3  A    between atoms: C_15  and  C_17
REMARK                            x       y       z     vdW  Elec       q    Type
REMARK                         _______ _______ _______ _____ _____    ______ ____
ROOT
ATOM      1  N   UNL     1      18.160  35.544  55.418  0.00  0.00    -0.295 N 
ATOM      2  H   UNL     1      17.546  34.807  55.715  0.00  0.00    +0.151 HD
ATOM      3  C   UNL     1      18.354  36.520  56.349  0.00  0.00    +0.303 C 
ATOM      4  N   UNL     1      18.542  36.085  57.658  0.00  0.00    -0.274 N 
ATOM      5  C   UNL     1      19.043  34.742  58.045  0.00  0.00    +0.160 C 
ATOM      6  C   UNL     1      18.181  33.550  57.629  0.00  0.00    +0.038 C 
ATOM      7  C   UNL     1      20.525  34.561  57.656  0.00  0.00    +0.233 C 
ATOM      8  O   UNL     1      20.956  33.548  57.105  0.00  0.00    -0.274 OA
ATOM      9  N   UNL     1      21.422  35.519  58.054  0.00  0.00    -0.314 N 
ATOM     10  H   UNL     1      22.376  35.286  57.804  0.00  0.00    +0.149 HD
ATOM     11  C   UNL     1      21.208  36.537  59.062  0.00  0.00    +0.106 C 
ATOM     12  C   UNL     1      20.227  37.625  58.649  0.00  0.00    +0.038 C 
ATOM     13  C   UNL     1      18.778  37.140  58.639  0.00  0.00    +0.111 C 
ATOM     14  O   UNL     1      18.367  37.711  56.041  0.00  0.00    -0.253 OA
ENDROOT
BRANCH   1  15
ATOM     15  C   UNL     1      18.059  35.872  54.010  0.00  0.00    +0.148 C 
BRANCH  15  17
ATOM     16  C   UNL     1      17.534  34.342  52.092  0.00  0.00    +0.021 C 
ATOM     17  C   UNL     1      18.247  34.623  53.191  0.00  0.00    +0.006 C 
ATOM     18 BR   UNL     1      19.533  33.422  53.841  0.00  0.00    -0.054 Br
ENDBRANCH  15  17
ENDBRANCH   1  15
TORSDOF 2
ENDMDL
MODEL 6
REMARK VINA RESULT:      -5.5     15.299     16.770
REMARK  Name = 
REMARK  3 active torsions:
REMARK  status: ('A' for Active; 'I' for Inactive)
REMARK    1  A    between atoms: C_2  and  C_4
REMARK    2  A    between atoms: C_4  and  N_5
REMARK    3  A    between atoms: C_15  and  C_17
REMARK                            x       y       z     vdW  Elec       q    Type
REMARK                         _______ _______ _______ _____ _____    ______ ____
ROOT
ATOM      1  N   UNL     1      28.969  22.855  65.031  0.00  0.00    -0.295 N 
ATOM      2  H   UNL     1      28.479  22.075  65.431  0.00  0.00    +0.151 HD
ATOM      3  C   UNL     1      28.196  23.662  64.251  0.00  0.00    +0.303 C 
ATOM      4  N   UNL     1      26.926  23.950  64.743  0.00  0.00    -0.274 N 
ATOM      5  C   UNL     1      26.538  23.905  66.175  0.00  0.00    +0.160 C 
ATOM      6  C   UNL     1      26.645  22.546  66.866  0.00  0.00    +0.038 C 
ATOM      7  C   UNL     1      27.224  25.030  66.978  0.00  0.00    +0.233 C 
ATOM      8  O   UNL     1      27.761  24.843  68.070  0.00  0.00    -0.274 OA
ATOM      9  N   UNL     1      27.121  26.316  66.513  0.00  0.00    -0.314 N 
ATOM     10  H   UNL     1      27.551  26.990  67.136  0.00  0.00    +0.149 HD
ATOM     11  C   UNL     1      26.187  26.802  65.519  0.00  0.00    +0.106 C 
ATOM     12  C   UNL     1      26.472  26.312  64.106  0.00  0.00    +0.038 C 
ATOM     13  C   UNL     1      26.120  24.838  63.910  0.00  0.00    +0.111 C 
ATOM     14  O   UNL     1      28.605  24.108  63.180  0.00  0.00    -0.253 OA
ENDROOT
BRANCH   1  15
ATOM     15  C   UNL     1      30.344  22.573  64.672  0.00  0.00    +0.148 C 
BRANCH  15  17
ATOM     16  C   UNL     1      31.307  20.461  63.723  0.00  0.00    +0.021 C 
ATOM     17  C   UNL     1      30.558  21.084  64.643  0.00  0.00    +0.006 C 
ATOM     18 BR   UNL     1      29.652  20.115  65.968  0.00  0.00    -0.054 Br
ENDBRANCH  15  17
ENDBRANCH   1  15
TORSDOF 2
ENDMDL
MODEL 7
REMARK VINA RESULT:      -5.5     16.858     18.265
REMARK  Name = 
REMARK  3 active torsions:
REMARK  status: ('A' for Active; 'I' for Inactive)
REMARK    1  A    between atoms: C_2  and  C_4
REMARK    2  A    between atoms: C_4  and  N_5
REMARK    3  A    between atoms: C_15  and  C_17
REMARK                            x       y       z     vdW  Elec       q    Type
REMARK                         _______ _______ _______ _____ _____    ______ ____
ROOT
ATOM      1  N   UNL     1      28.371  22.801  64.974  0.00  0.00    -0.295 N 
ATOM      2  H   UNL     1      28.653  23.532  65.602  0.00  0.00    +0.151 HD
ATOM      3  C   UNL     1      28.967  21.599  65.210  0.00  0.00    +0.303 C 
ATOM      4  N   UNL     1      29.072  21.222  66.546  0.00  0.00    -0.274 N 
ATOM      5  C   UNL     1      28.195  21.712  67.640  0.00  0.00    +0.160 C 
ATOM      6  C   UNL     1      28.232  23.214  67.920  0.00  0.00    +0.038 C 
ATOM      7  C   UNL     1      26.756  21.176  67.488  0.00  0.00    +0.233 C 
ATOM      8  O   UNL     1      25.759  21.886  67.617  0.00  0.00    -0.274 OA
ATOM      9  N   UNL     1      26.579  19.826  67.325  0.00  0.00    -0.314 N 
ATOM     10  H   UNL     1      25.601  19.563  67.294  0.00  0.00    +0.149 HD
ATOM     11  C   UNL     1      27.558  18.790  67.583  0.00  0.00    +0.106 C 
ATOM     12  C   UNL     1      28.710  18.761  66.587  0.00  0.00    +0.038 C 
ATOM     13  C   UNL     1      29.687  19.919  66.781  0.00  0.00    +0.111 C 
ATOM     14  O   UNL     1      29.381  20.892  64.291  0.00  0.00    -0.253 OA
ENDROOT
BRANCH   1  15
ATOM     15  C   UNL     1      28.112  23.248  63.620  0.00  0.00    +0.148 C 
BRANCH  15  17
ATOM     16  C   UNL     1      27.040  25.513  63.728  0.00  0.00    +0.021 C 
ATOM     17  C   UNL     1      28.133  24.752  63.577  0.00  0.00    +0.006 C 
ATOM     18 BR   UNL     1      29.808  25.523  63.239  0.00  0.00    -0.054 Br
ENDBRANCH  15  17
ENDBRANCH   1  15
TORSDOF 2
ENDMDL
MODEL 8
REMARK VINA RESULT:      -5.4     17.715     19.505
REMARK  Name = 
REMARK  3 active torsions:
REMARK  status: ('A' for Active; 'I' for Inactive)
REMARK    1  A    between atoms: C_2  and  C_4
REMARK    2  A    between atoms: C_4  and  N_5
REMARK    3  A    between atoms: C_15  and  C_17
REMARK                            x       y       z     vdW  Elec       q    Type
REMARK                         _______ _______ _______ _____ _____    ______ ____
ROOT
ATOM      1  N   UNL     1      35.605  24.869  60.384  0.00  0.00    -0.295 N 
ATOM      2  H   UNL     1      36.578  24.709  60.576  0.00  0.00    +0.151 HD
ATOM      3  C   UNL     1      34.990  25.707  61.266  0.00  0.00    +0.303 C 
ATOM      4  N   UNL     1      35.713  26.838  61.635  0.00  0.00    -0.274 N 
ATOM      5  C   UNL     1      36.794  27.460  60.828  0.00  0.00    +0.160 C 
ATOM      6  C   UNL     1      38.025  26.594  60.560  0.00  0.00    +0.038 C 
ATOM      7  C   UNL     1      36.234  28.103  59.542  0.00  0.00    +0.233 C 
ATOM      8  O   UNL     1      36.755  27.956  58.437  0.00  0.00    -0.274 OA
ATOM      9  N   UNL     1      35.184  28.978  59.657  0.00  0.00    -0.314 N 
ATOM     10  H   UNL     1      34.925  29.393  58.770  0.00  0.00    +0.149 HD
ATOM     11  C   UNL     1      34.722  29.616  60.873  0.00  0.00    +0.106 C 
ATOM     12  C   UNL     1      34.043  28.669  61.852  0.00  0.00    +0.038 C 
ATOM     13  C   UNL     1      35.031  27.741  62.557  0.00  0.00    +0.111 C 
ATOM     14  O   UNL     1      33.863  25.474  61.699  0.00  0.00    -0.253 OA
ENDROOT
BRANCH   1  15
ATOM     15  C   UNL     1      34.908  23.717  59.847  0.00  0.00    +0.148 C 
BRANCH  15  17
ATOM     16  C   UNL     1      36.887  23.620  58.311  0.00  0.00    +0.021 C 
ATOM     17  C   UNL     1      35.730  23.104  58.746  0.00  0.00    +0.006 C 
ATOM     18 BR   UNL     1      35.000  21.567  57.958  0.00  0.00    -0.054 Br
ENDBRANCH  15  17
ENDBRANCH   1  15
TORSDOF 2
ENDMDL
MODEL 9
REMARK VINA RESULT:      -5.4      2.119      3.293
REMARK  Name = 
REMARK  3 active torsions:
REMARK  status: ('A' for Active; 'I' for Inactive)
REMARK    1  A    between atoms: C_2  and  C_4
REMARK    2  A    between atoms: C_4  and  N_5
REMARK    3  A    between atoms: C_15  and  C_17
REMARK                            x       y       z     vdW  Elec       q    Type
REMARK                         _______ _______ _______ _____ _____    ______ ____
ROOT
ATOM      1  N   UNL     1      18.438  35.261  57.220  0.00  0.00    -0.295 N 
ATOM      2  H   UNL     1      19.360  35.311  57.614  0.00  0.00    +0.151 HD
ATOM      3  C   UNL     1      18.414  35.127  55.864  0.00  0.00    +0.303 C 
ATOM      4  N   UNL     1      19.337  34.235  55.324  0.00  0.00    -0.274 N 
ATOM      5  C   UNL     1      19.950  33.098  56.055  0.00  0.00    +0.160 C 
ATOM      6  C   UNL     1      20.804  33.454  57.272  0.00  0.00    +0.038 C 
ATOM      7  C   UNL     1      18.908  32.003  56.366  0.00  0.00    +0.233 C 
ATOM      8  O   UNL     1      18.813  31.461  57.467  0.00  0.00    -0.274 OA
ATOM      9  N   UNL     1      18.139  31.526  55.335  0.00  0.00    -0.314 N 
ATOM     10  H   UNL     1      17.528  30.771  55.623  0.00  0.00    +0.149 HD
ATOM     11  C   UNL     1      18.389  31.703  53.919  0.00  0.00    +0.106 C 
ATOM     12  C   UNL     1      18.175  33.126  53.423  0.00  0.00    +0.038 C 
ATOM     13  C   UNL     1      19.280  34.080  53.873  0.00  0.00    +0.111 C 
ATOM     14  O   UNL     1      17.619  35.756  55.167  0.00  0.00    -0.253 OA
ENDROOT
BRANCH   1  15
ATOM     15  C   UNL     1      17.455  36.080  57.901  0.00  0.00    +0.148 C 
BRANCH  15  17
ATOM     16  C   UNL     1      17.391  38.583  58.056  0.00  0.00    +0.021 C 
ATOM     17  C   UNL     1      18.053  37.427  58.207  0.00  0.00    +0.006 C 
ATOM     18 BR   UNL     1      19.840  37.404  58.774  0.00  0.00    -0.054 Br
ENDBRANCH  15  17
ENDBRANCH   1  15
TORSDOF 2
ENDMDL
