@<TRIPOS>MOLECULE
UNL
   31    31     1     0     0
SMALL
bcc


@<TRIPOS>ATOM
      1 N           33.4820    23.0890    71.1390 ns         1 UNL      -0.543900
      2 N1          34.1350    20.2170    72.0290 ns         1 UNL      -0.502100
      3 C           32.0880    21.0730    70.9920 ca         1 UNL      -0.130600
      4 C1          30.9670    20.8740    70.1640 ca         1 UNL      -0.088000
      5 C2          30.7030    19.6190    69.6180 ca         1 UNL      -0.164000
      6 C3          31.5610    18.5580    69.8840 ca         1 UNL      -0.116000
      7 C4          32.6910    18.7490    70.6830 ca         1 UNL      -0.164000
      8 C5          32.9810    20.0020    71.2380 ca         1 UNL       0.096600
      9 C6          32.3450    22.4310    71.5670 c          1 UNL       0.678700
     10 C7          35.0200    24.9610    70.8420 c3         1 UNL      -0.113600
     11 C8          33.7980    24.4380    71.5910 c3         1 UNL       0.100700
     12 C9          32.6020    25.3660    71.3940 c3         1 UNL      -0.113600
     13 C10         35.3020    20.8560    71.6810 c          1 UNL       0.534100
     14 C11         36.3380    20.9200    72.8210 c          1 UNL       0.894600
     15 O           31.5460    22.9220    72.3590 o          1 UNL      -0.643100
     16 O1          35.6280    21.3790    70.6210 o          1 UNL      -0.647100
     17 O2          37.5130    21.1720    72.6460 o          1 UNL      -0.786800
     18 O3          35.7490    20.6710    74.0080 o          1 UNL      -0.786800
     19 H01         29.8280    19.4700    68.9850 ha         1 UNL       0.120000
     20 H02         30.3000    21.7080    69.9480 ha         1 UNL       0.136000
     21 H03         31.3510    17.5730    69.4670 ha         1 UNL       0.118000
     22 H04         33.3580    17.9090    70.8780 ha         1 UNL       0.139000
     23 H05         31.7720    25.0240    72.0120 hc         1 UNL       0.042867
     24 H06         32.8770    26.3800    71.6840 hc         1 UNL       0.042867
     25 H07         32.3020    25.3560    70.3460 hc         1 UNL       0.042867
     26 H08         34.0260    24.4090    72.6560 h1         1 UNL       0.062700
     27 H09         35.8690    24.3040    71.0290 hc         1 UNL       0.042867
     28 H10         34.8090    24.9850    69.7730 hc         1 UNL       0.042867
     29 H11         35.2560    25.9670    71.1890 hc         1 UNL       0.042867
     30 H           34.0930    22.6360    70.5140 hn         1 UNL       0.344500
     31 H2          34.0970    19.8630    72.9470 hn         1 UNL       0.320500
@<TRIPOS>BOND
     1     1     9 1   
     2     1    11 1   
     3     1    30 1   
     4     2    31 1   
     5     3     8 ar  
     6     3     9 1   
     7     3     4 ar  
     8     4    20 1   
     9     4     5 ar  
    10     5     6 ar  
    11     5    19 1   
    12     6     7 ar  
    13     6    21 1   
    14     7     8 ar  
    15     7    22 1   
    16     2     8 1   
    17     9    15 2   
    18    10    11 1   
    19    10    27 1   
    20    10    28 1   
    21    10    29 1   
    22    11    26 1   
    23    11    12 1   
    24    12    23 1   
    25    12    24 1   
    26    12    25 1   
    27     2    13 1   
    28    13    14 1   
    29    14    18 1   
    30    13    16 2   
    31    14    17 1   
@<TRIPOS>SUBSTRUCTURE
     1 UNL         1 TEMP              0 ****  ****    0 ROOT
